CIF file written using JARVIS-Tools package.
data_Tm2SbTe
_symmetry_space_group_name_H-M  'R-3m'
_cell_length_a       7.47568
_cell_length_b       7.47568
_cell_length_c       7.47569
_cell_angle_alpha    33.588
_cell_angle_beta     33.588
_cell_angle_gamma    33.588

_symmetry_Int_Tables_number  166
_chemical_formula_structural  Tm2SbTe
_chemical_formula_sum  Tm2SbTe
_cell_volume  113.89614394334835
_cell_formula_units_Z  1
loop_
  _symmetry_equiv_pos_site_id
 _symmetry_equiv_pos_as_xyz
 1  'x, y, z'
loop_
 _atom_site_type_symbol
 _atom_site_label
 _atom_site_symmetry_multiplicity
 _atom_site_fract_x
 _atom_site_fract_y
 _atom_site_fract_z
 _atom_site_fract_occupancy
 Sb  Sb1  1  0.00000  0.00000  0.00000  1
 Te  Te1  1  0.50000  0.50000  0.50000  1
 Tm  Tm1  1  0.25412  0.25412  0.25412  1
 Tm  Tm2  1  0.74588  0.74588  0.74588  1
