CIF file written using JARVIS-Tools package.
data_AgPbF6
_symmetry_space_group_name_H-M  'P-1'
_cell_length_a       5.11348
_cell_length_b       5.19531
_cell_length_c       5.80672
_cell_angle_alpha    89.0284
_cell_angle_beta     65.9284
_cell_angle_gamma    61.7634

_symmetry_Int_Tables_number  2
_chemical_formula_structural  AgPbF6
_chemical_formula_sum  AgPbF6
_cell_volume  121.07972661345137
_cell_formula_units_Z  1
loop_
  _symmetry_equiv_pos_site_id
 _symmetry_equiv_pos_as_xyz
 1  'x, y, z'
loop_
 _atom_site_type_symbol
 _atom_site_label
 _atom_site_symmetry_multiplicity
 _atom_site_fract_x
 _atom_site_fract_y
 _atom_site_fract_z
 _atom_site_fract_occupancy
 Ag  Ag1  1  0.00000  0.00000  0.00000  1
 F  F1  1  0.84658  0.90525  0.74025  1
 F  F2  1  0.15342  0.09475  0.25975  1
 F  F3  1  0.81618  0.75756  0.24980  1
 F  F4  1  0.18382  0.24244  0.75020  1
 F  F5  1  0.53758  0.55653  0.73228  1
 F  F6  1  0.46242  0.44347  0.26772  1
 Pb  Pb1  1  0.00000  0.50000  0.50000  1
