CIF file written using JARVIS-Tools package.
data_Na4Al3Ge3ClO12
_symmetry_space_group_name_H-M  'P-43n'
_cell_length_a       9.09747
_cell_length_b       9.09747
_cell_length_c       9.09747
_cell_angle_alpha    90
_cell_angle_beta     90
_cell_angle_gamma    90

_symmetry_Int_Tables_number  218
_chemical_formula_structural  Na4Al3Ge3ClO12
_chemical_formula_sum  Na8Al6Ge6Cl2O24
_cell_volume  752.943850676791
_cell_formula_units_Z  2
loop_
  _symmetry_equiv_pos_site_id
 _symmetry_equiv_pos_as_xyz
 1  'x, y, z'
loop_
 _atom_site_type_symbol
 _atom_site_label
 _atom_site_symmetry_multiplicity
 _atom_site_fract_x
 _atom_site_fract_y
 _atom_site_fract_z
 _atom_site_fract_occupancy
 Al  Al1  1  0.25000  0.00000  0.50000  1
 Al  Al2  1  0.50000  0.25000  0.00000  1
 Al  Al3  1  0.75000  0.00000  0.50000  1
 Al  Al4  1  0.00000  0.50000  0.75000  1
 Al  Al5  1  0.00000  0.50000  0.25000  1
 Al  Al6  1  0.50000  0.75000  0.00000  1
 Cl  Cl1  1  0.50000  0.50000  0.50000  1
 Cl  Cl2  1  0.00000  0.00000  0.00000  1
 Ge  Ge1  1  0.25000  0.50000  0.00000  1
 Ge  Ge2  1  0.50000  0.00000  0.75000  1
 Ge  Ge3  1  0.50000  0.00000  0.25000  1
 Ge  Ge4  1  0.75000  0.50000  0.00000  1
 Ge  Ge5  1  0.00000  0.75000  0.50000  1
 Ge  Ge6  1  0.00000  0.25000  0.50000  1
 Na  Na1  1  0.17125  0.82875  0.82875  1
 Na  Na2  1  0.17125  0.17125  0.17125  1
 Na  Na3  1  0.67125  0.67125  0.67125  1
 Na  Na4  1  0.32875  0.32875  0.67125  1
 Na  Na5  1  0.82875  0.17125  0.82875  1
 Na  Na6  1  0.67125  0.32875  0.32875  1
 Na  Na7  1  0.32875  0.67125  0.32875  1
 Na  Na8  1  0.82875  0.82875  0.17125  1
 O  O1  1  0.64265  0.64272  0.92282  1
 O  O2  1  0.42282  0.85728  0.85735  1
 O  O3  1  0.85728  0.85735  0.42282  1
 O  O4  1  0.64272  0.07718  0.35735  1
 O  O5  1  0.57718  0.14272  0.85735  1
 O  O6  1  0.57718  0.85728  0.14265  1
 O  O7  1  0.14272  0.85735  0.57718  1
 O  O8  1  0.07718  0.64265  0.35728  1
 O  O9  1  0.35728  0.92282  0.35735  1
 O  O10  1  0.64265  0.35728  0.07718  1
 O  O11  1  0.64272  0.92282  0.64265  1
 O  O12  1  0.85735  0.42282  0.85728  1
 O  O13  1  0.92282  0.35735  0.35728  1
 O  O14  1  0.42282  0.14272  0.14265  1
 O  O15  1  0.85728  0.14265  0.57718  1
 O  O16  1  0.14265  0.42282  0.14272  1
 O  O17  1  0.35728  0.07718  0.64265  1
 O  O18  1  0.07718  0.35735  0.64272  1
 O  O19  1  0.92282  0.64265  0.64272  1
 O  O20  1  0.14265  0.57718  0.85728  1
 O  O21  1  0.14272  0.14265  0.42282  1
 O  O22  1  0.35735  0.64272  0.07718  1
 O  O23  1  0.85735  0.57718  0.14272  1
 O  O24  1  0.35735  0.35728  0.92282  1
