CIF file written using JARVIS-Tools package.
data_GaCuSnSe4
_symmetry_space_group_name_H-M  'I-4'
_cell_length_a       6.90161
_cell_length_b       6.9016
_cell_length_c       6.90161
_cell_angle_alpha    132.045
_cell_angle_beta     132.045
_cell_angle_gamma    70.1586

_symmetry_Int_Tables_number  82
_chemical_formula_structural  GaCuSnSe4
_chemical_formula_sum  GaCuSnSe4
_cell_volume  177.71334203233437
_cell_formula_units_Z  1
loop_
  _symmetry_equiv_pos_site_id
 _symmetry_equiv_pos_as_xyz
 1  'x, y, z'
loop_
 _atom_site_type_symbol
 _atom_site_label
 _atom_site_symmetry_multiplicity
 _atom_site_fract_x
 _atom_site_fract_y
 _atom_site_fract_z
 _atom_site_fract_occupancy
 Cu  Cu1  1  0.25000  0.75000  0.50000  1
 Ga  Ga1  1  0.75000  0.25000  0.50000  1
 Se  Se1  1  0.65351  0.65588  0.55670  1
 Se  Se2  1  0.09918  0.09681  0.44330  1
 Se  Se3  1  0.90319  0.34649  0.00238  1
 Se  Se4  1  0.34412  0.90082  0.99762  1
 Sn  Sn1  1  0.50000  0.50000  0.00000  1
