CIF file written using JARVIS-Tools package.
data_YbGeAu
_symmetry_space_group_name_H-M  'C2/m'
_cell_length_a       5.70606
_cell_length_b       5.70606
_cell_length_c       7.1745
_cell_angle_alpha    51.8686
_cell_angle_beta     51.8686
_cell_angle_gamma    46.1465

_symmetry_Int_Tables_number  12
_chemical_formula_structural  YbGeAu
_chemical_formula_sum  Yb2Ge2Au2
_cell_volume  124.87398932560325
_cell_formula_units_Z  2
loop_
  _symmetry_equiv_pos_site_id
 _symmetry_equiv_pos_as_xyz
 1  'x, y, z'
loop_
 _atom_site_type_symbol
 _atom_site_label
 _atom_site_symmetry_multiplicity
 _atom_site_fract_x
 _atom_site_fract_y
 _atom_site_fract_z
 _atom_site_fract_occupancy
 Au  Au1  1  0.17721  0.17721  0.28412  1
 Au  Au2  1  0.82279  0.82279  0.71588  1
 Ge  Ge1  1  0.84584  0.84584  0.10110  1
 Ge  Ge2  1  0.15416  0.15416  0.89890  1
 Yb  Yb1  1  0.53973  0.53973  0.69745  1
 Yb  Yb2  1  0.46027  0.46027  0.30255  1
