CIF file written using JARVIS-Tools package.
data_Ag2Bi2SeS3
_symmetry_space_group_name_H-M  'Imm2'
_cell_length_a       7.03906
_cell_length_b       7.03906
_cell_length_c       7.03906
_cell_angle_alpha    132.872
_cell_angle_beta     131.755
_cell_angle_gamma    69.7385

_symmetry_Int_Tables_number  44
_chemical_formula_structural  Ag2Bi2SeS3
_chemical_formula_sum  Ag2Bi2SeS3
_cell_volume  187.0117227638092
_cell_formula_units_Z  1
loop_
  _symmetry_equiv_pos_site_id
 _symmetry_equiv_pos_as_xyz
 1  'x, y, z'
loop_
 _atom_site_type_symbol
 _atom_site_label
 _atom_site_symmetry_multiplicity
 _atom_site_fract_x
 _atom_site_fract_y
 _atom_site_fract_z
 _atom_site_fract_occupancy
 Ag  Ag1  1  0.99346  0.99346  -0.00000  1
 Ag  Ag2  1  0.25235  0.75235  0.50000  1
 Bi  Bi1  1  0.50502  0.50502  -0.00000  1
 Bi  Bi2  1  0.75277  0.25277  0.50000  1
 S  S1  1  0.50354  0.00354  0.50000  1
 S  S2  1  0.74911  0.74911  -0.00000  1
 S  S3  1  0.99783  0.49783  0.50000  1
 Se  Se1  1  0.24591  0.24591  -0.00000  1
