CIF file written using JARVIS-Tools package.
data_LiTiP2O7
_symmetry_space_group_name_H-M  'C2'
_cell_length_a       5.28271
_cell_length_b       5.28271
_cell_length_c       4.56755
_cell_angle_alpha    81.6537
_cell_angle_beta     98.3463
_cell_angle_gamma    77.0038

_symmetry_Int_Tables_number  5
_chemical_formula_structural  LiTiP2O7
_chemical_formula_sum  LiTiP2O7
_cell_volume  120.77840387972947
_cell_formula_units_Z  1
loop_
  _symmetry_equiv_pos_site_id
 _symmetry_equiv_pos_as_xyz
 1  'x, y, z'
loop_
 _atom_site_type_symbol
 _atom_site_label
 _atom_site_symmetry_multiplicity
 _atom_site_fract_x
 _atom_site_fract_y
 _atom_site_fract_z
 _atom_site_fract_occupancy
 Li  Li1  1  0.74991  0.74991  0.00000  1
 O  O1  1  0.07182  0.81411  0.28993  1
 O  O2  1  0.34626  0.84479  0.79934  1
 O  O3  1  0.12926  0.46615  0.74532  1
 O  O4  1  0.52618  0.52618  0.50000  1
 O  O5  1  0.46615  0.12926  0.25468  1
 O  O6  1  0.84479  0.34626  0.20066  1
 O  O7  1  0.81411  0.07182  0.71007  1
 P  P1  1  0.25246  0.66844  0.58890  1
 P  P2  1  0.66844  0.25246  0.41110  1
 Ti  Ti1  1  0.12546  0.12546  0.00000  1
