CIF file written using JARVIS-Tools package.
data_Ni2PPd
_symmetry_space_group_name_H-M  'Cmcm'
_cell_length_a       4.60717
_cell_length_b       4.60717
_cell_length_c       6.51524
_cell_angle_alpha    90
_cell_angle_beta     90
_cell_angle_gamma    135.259

_symmetry_Int_Tables_number  63
_chemical_formula_structural  Ni2PPd
_chemical_formula_sum  Ni4P2Pd2
_cell_volume  97.34509952777596
_cell_formula_units_Z  2
loop_
  _symmetry_equiv_pos_site_id
 _symmetry_equiv_pos_as_xyz
 1  'x, y, z'
loop_
 _atom_site_type_symbol
 _atom_site_label
 _atom_site_symmetry_multiplicity
 _atom_site_fract_x
 _atom_site_fract_y
 _atom_site_fract_z
 _atom_site_fract_occupancy
 Ni  Ni1  1  0.85348  0.14652  0.05296  1
 Ni  Ni2  1  0.14652  0.85348  0.94704  1
 Ni  Ni3  1  0.14652  0.85348  0.55296  1
 Ni  Ni4  1  0.85348  0.14652  0.44704  1
 P  P1  1  0.27092  0.72908  0.25000  1
 P  P2  1  0.72908  0.27092  0.75000  1
 Pd  Pd1  1  0.55334  0.44666  0.25000  1
 Pd  Pd2  1  0.44666  0.55334  0.75000  1
