CIF file written using JARVIS-Tools package.
data_SrNdMnO4
_symmetry_space_group_name_H-M  'I4mm'
_cell_length_a       6.83035
_cell_length_b       6.83035
_cell_length_c       6.83035
_cell_angle_alpha    147.338
_cell_angle_beta     147.338
_cell_angle_gamma    46.8639

_symmetry_Int_Tables_number  107
_chemical_formula_structural  SrNdMnO4
_chemical_formula_sum  SrNdMnO4
_cell_volume  92.47040479877793
_cell_formula_units_Z  1
loop_
  _symmetry_equiv_pos_site_id
 _symmetry_equiv_pos_as_xyz
 1  'x, y, z'
loop_
 _atom_site_type_symbol
 _atom_site_label
 _atom_site_symmetry_multiplicity
 _atom_site_fract_x
 _atom_site_fract_y
 _atom_site_fract_z
 _atom_site_fract_occupancy
 Mn  Mn1  1  0.00256  0.00256  0.00000  1
 Nd  Nd1  1  0.36015  0.36015  -0.00000  1
 O  O1  1  0.83506  0.83506  -0.00000  1
 O  O2  1  0.17342  0.17342  0.00000  1
 O  O3  1  0.99290  0.49290  0.50000  1
 O  O4  1  0.49290  0.99290  0.50000  1
 Sr  Sr1  1  0.64301  0.64301  0.00000  1
