CIF file written using JARVIS-Tools package.
data_YbZnCuSi2
_symmetry_space_group_name_H-M  'I-4m2'
_cell_length_a       5.81604
_cell_length_b       5.81604
_cell_length_c       5.81603
_cell_angle_alpha    139.039
_cell_angle_beta     139.039
_cell_angle_gamma    59.3154

_symmetry_Int_Tables_number  119
_chemical_formula_structural  YbZnCuSi2
_chemical_formula_sum  YbZnCuSi2
_cell_volume  83.71791936801536
_cell_formula_units_Z  1
loop_
  _symmetry_equiv_pos_site_id
 _symmetry_equiv_pos_as_xyz
 1  'x, y, z'
loop_
 _atom_site_type_symbol
 _atom_site_label
 _atom_site_symmetry_multiplicity
 _atom_site_fract_x
 _atom_site_fract_y
 _atom_site_fract_z
 _atom_site_fract_occupancy
 Cu  Cu1  1  0.75000  0.25000  0.50000  1
 Si  Si1  1  0.61498  0.61498  0.00000  1
 Si  Si2  1  0.38502  0.38502  0.00000  1
 Yb  Yb1  1  0.00000  0.00000  0.00000  1
 Zn  Zn1  1  0.25000  0.75000  0.50000  1
