CIF file written using JARVIS-Tools package.
data_Pr2ScSi2
_symmetry_space_group_name_H-M  'P4/mbm'
_cell_length_a       7.40483
_cell_length_b       7.40483
_cell_length_c       4.46771
_cell_angle_alpha    90
_cell_angle_beta     90
_cell_angle_gamma    90

_symmetry_Int_Tables_number  127
_chemical_formula_structural  Pr2ScSi2
_chemical_formula_sum  Pr4Sc2Si4
_cell_volume  244.97090423545978
_cell_formula_units_Z  2
loop_
  _symmetry_equiv_pos_site_id
 _symmetry_equiv_pos_as_xyz
 1  'x, y, z'
loop_
 _atom_site_type_symbol
 _atom_site_label
 _atom_site_symmetry_multiplicity
 _atom_site_fract_x
 _atom_site_fract_y
 _atom_site_fract_z
 _atom_site_fract_occupancy
 Pr  Pr1  1  0.67820  0.17820  0.50000  1
 Pr  Pr2  1  0.32180  0.82180  0.50000  1
 Pr  Pr3  1  0.17820  0.32180  0.50000  1
 Pr  Pr4  1  0.82180  0.67820  0.50000  1
 Sc  Sc1  1  0.00000  0.00000  0.00000  1
 Sc  Sc2  1  0.50000  0.50000  0.00000  1
 Si  Si1  1  0.11835  0.61835  0.00000  1
 Si  Si2  1  0.88165  0.38165  0.00000  1
 Si  Si3  1  0.61835  0.88165  0.00000  1
 Si  Si4  1  0.38165  0.11835  0.00000  1
