CIF file written using JARVIS-Tools package.
data_Na3SbF6
_symmetry_space_group_name_H-M  'Fm-3m'
_cell_length_a       6.15483
_cell_length_b       6.15483
_cell_length_c       6.15483
_cell_angle_alpha    60.0001
_cell_angle_beta     60
_cell_angle_gamma    60

_symmetry_Int_Tables_number  225
_chemical_formula_structural  Na3SbF6
_chemical_formula_sum  Na3SbF6
_cell_volume  164.86678344495763
_cell_formula_units_Z  1
loop_
  _symmetry_equiv_pos_site_id
 _symmetry_equiv_pos_as_xyz
 1  'x, y, z'
loop_
 _atom_site_type_symbol
 _atom_site_label
 _atom_site_symmetry_multiplicity
 _atom_site_fract_x
 _atom_site_fract_y
 _atom_site_fract_z
 _atom_site_fract_occupancy
 F  F1  1  0.75035  0.24965  0.24965  1
 F  F2  1  0.24965  0.24965  0.75035  1
 F  F3  1  0.24965  0.75035  0.75035  1
 F  F4  1  0.24965  0.75035  0.24965  1
 F  F5  1  0.75035  0.24965  0.75035  1
 F  F6  1  0.75035  0.75035  0.24965  1
 Na  Na1  1  0.75000  0.75000  0.75000  1
 Na  Na2  1  0.25000  0.25000  0.25000  1
 Na  Na3  1  0.50000  0.50000  0.50000  1
 Sb  Sb1  1  0.00000  0.00000  0.00000  1
