CIF file written using JARVIS-Tools package.
data_CoNiTe4
_symmetry_space_group_name_H-M  'C2/m'
_cell_length_a       6.65415
_cell_length_b       6.65415
_cell_length_c       6.67829
_cell_angle_alpha    59.8626
_cell_angle_beta     59.8627
_cell_angle_gamma    33.5785

_symmetry_Int_Tables_number  12
_chemical_formula_structural  CoNiTe4
_chemical_formula_sum  CoNiTe4
_cell_volume  139.25138403389502
_cell_formula_units_Z  1
loop_
  _symmetry_equiv_pos_site_id
 _symmetry_equiv_pos_as_xyz
 1  'x, y, z'
loop_
 _atom_site_type_symbol
 _atom_site_label
 _atom_site_symmetry_multiplicity
 _atom_site_fract_x
 _atom_site_fract_y
 _atom_site_fract_z
 _atom_site_fract_occupancy
 Co  Co1  1  0.00000  0.00000  0.00000  1
 Ni  Ni1  1  0.50000  0.50000  0.50000  1
 Te  Te1  1  0.12127  0.12127  0.55071  1
 Te  Te2  1  0.62137  0.62137  0.04089  1
 Te  Te3  1  0.87873  0.87873  0.44929  1
 Te  Te4  1  0.37863  0.37863  0.95911  1
