CIF file written using JARVIS-Tools package.
data_TeO2
_symmetry_space_group_name_H-M  'P4_12_12'
_cell_length_a       4.87076
_cell_length_b       4.86365
_cell_length_c       7.56218
_cell_angle_alpha    90
_cell_angle_beta     90
_cell_angle_gamma    90

_symmetry_Int_Tables_number  92
_chemical_formula_structural  TeO2
_chemical_formula_sum  Te4O8
_cell_volume  179.14553396121215
_cell_formula_units_Z  4
loop_
  _symmetry_equiv_pos_site_id
 _symmetry_equiv_pos_as_xyz
 1  'x, y, z'
loop_
 _atom_site_type_symbol
 _atom_site_label
 _atom_site_symmetry_multiplicity
 _atom_site_fract_x
 _atom_site_fract_y
 _atom_site_fract_z
 _atom_site_fract_occupancy
 O  O1  1  0.50044  0.14095  0.93364  1
 O  O2  1  0.00044  0.35905  0.06636  1
 O  O3  1  0.39004  0.25169  0.31621  1
 O  O4  1  0.49956  0.64095  0.56636  1
 O  O5  1  0.99956  0.85905  0.43364  1
 O  O6  1  0.10996  0.74831  0.81621  1
 O  O7  1  0.60996  0.75169  0.18379  1
 O  O8  1  0.89004  0.24831  0.68379  1
 Te  Te1  1  0.72961  0.52035  0.37494  1
 Te  Te2  1  0.27039  0.02035  0.12506  1
 Te  Te3  1  0.22961  0.97965  0.62506  1
 Te  Te4  1  0.77039  0.47965  0.87494  1
