CIF file written using JARVIS-Tools package.
data_Li2VCrO4
_symmetry_space_group_name_H-M  'P2/m'
_cell_length_a       2.90522
_cell_length_b       5.10041
_cell_length_c       5.15008
_cell_angle_alpha    110.082
_cell_angle_beta     89.9968
_cell_angle_gamma    90.0007

_symmetry_Int_Tables_number  10
_chemical_formula_structural  Li2VCrO4
_chemical_formula_sum  Li2VCrO4
_cell_volume  71.67348292964128
_cell_formula_units_Z  1
loop_
  _symmetry_equiv_pos_site_id
 _symmetry_equiv_pos_as_xyz
 1  'x, y, z'
loop_
 _atom_site_type_symbol
 _atom_site_label
 _atom_site_symmetry_multiplicity
 _atom_site_fract_x
 _atom_site_fract_y
 _atom_site_fract_z
 _atom_site_fract_occupancy
 Cr  Cr1  1  0.50000  0.50000  0.00000  1
 Li  Li1  1  0.50000  0.00000  0.50000  1
 Li  Li2  1  0.00000  0.00000  0.00000  1
 O  O1  1  0.00003  0.27273  0.75771  1
 O  O2  1  0.49999  0.72983  0.74980  1
 O  O3  1  0.50001  0.27017  0.25020  1
 O  O4  1  -0.00003  0.72727  0.24229  1
 V  V1  1  -0.00000  0.50000  0.50000  1
