CIF file written using JARVIS-Tools package.
data_Mg4CdAg5
_symmetry_space_group_name_H-M  'P4/mmm'
_cell_length_a       3.31755
_cell_length_b       3.31755
_cell_length_c       16.6523
_cell_angle_alpha    90
_cell_angle_beta     90
_cell_angle_gamma    90

_symmetry_Int_Tables_number  123
_chemical_formula_structural  Mg4CdAg5
_chemical_formula_sum  Mg4CdAg5
_cell_volume  183.27734053517668
_cell_formula_units_Z  1
loop_
  _symmetry_equiv_pos_site_id
 _symmetry_equiv_pos_as_xyz
 1  'x, y, z'
loop_
 _atom_site_type_symbol
 _atom_site_label
 _atom_site_symmetry_multiplicity
 _atom_site_fract_x
 _atom_site_fract_y
 _atom_site_fract_z
 _atom_site_fract_occupancy
 Ag  Ag1  1  0.00000  0.00000  0.89305  1
 Ag  Ag2  1  0.00000  0.00000  0.10695  1
 Ag  Ag3  1  0.00000  0.00000  0.30153  1
 Ag  Ag4  1  0.00000  0.00000  0.50000  1
 Ag  Ag5  1  0.00000  0.00000  0.69847  1
 Cd  Cd1  1  0.50000  0.50000  0.00000  1
 Mg  Mg1  1  0.50000  0.50000  0.20297  1
 Mg  Mg2  1  0.50000  0.50000  0.40096  1
 Mg  Mg3  1  0.50000  0.50000  0.59904  1
 Mg  Mg4  1  0.50000  0.50000  0.79703  1
