CIF file written using JARVIS-Tools package.
data_AlCuSnSe4
_symmetry_space_group_name_H-M  'I-4'
_cell_length_a       6.89559
_cell_length_b       6.89559
_cell_length_c       6.89559
_cell_angle_alpha    132.085
_cell_angle_beta     132.085
_cell_angle_gamma    70.0942

_symmetry_Int_Tables_number  82
_chemical_formula_structural  AlCuSnSe4
_chemical_formula_sum  AlCuSnSe4
_cell_volume  177.03549365149416
_cell_formula_units_Z  1
loop_
  _symmetry_equiv_pos_site_id
 _symmetry_equiv_pos_as_xyz
 1  'x, y, z'
loop_
 _atom_site_type_symbol
 _atom_site_label
 _atom_site_symmetry_multiplicity
 _atom_site_fract_x
 _atom_site_fract_y
 _atom_site_fract_z
 _atom_site_fract_occupancy
 Al  Al1  1  0.75000  0.25000  0.50000  1
 Cu  Cu1  1  0.25000  0.75000  0.50000  1
 Se  Se1  1  0.09580  0.09945  0.44571  1
 Se  Se2  1  0.65374  0.65008  0.55429  1
 Se  Se3  1  0.34992  0.90420  0.00366  1
 Se  Se4  1  0.90055  0.34626  0.99634  1
 Sn  Sn1  1  0.50000  0.50000  0.00000  1
