CIF file written using JARVIS-Tools package.
data_ThCoSi2
_symmetry_space_group_name_H-M  'Cmcm'
_cell_length_a       8.49541
_cell_length_b       8.49541
_cell_length_c       4.10095
_cell_angle_alpha    90
_cell_angle_beta     90
_cell_angle_gamma    151.855

_symmetry_Int_Tables_number  63
_chemical_formula_structural  ThCoSi2
_chemical_formula_sum  Th2Co2Si4
_cell_volume  139.61199426822918
_cell_formula_units_Z  2
loop_
  _symmetry_equiv_pos_site_id
 _symmetry_equiv_pos_as_xyz
 1  'x, y, z'
loop_
 _atom_site_type_symbol
 _atom_site_label
 _atom_site_symmetry_multiplicity
 _atom_site_fract_x
 _atom_site_fract_y
 _atom_site_fract_z
 _atom_site_fract_occupancy
 Co  Co1  1  0.82032  0.17968  0.75000  1
 Co  Co2  1  0.17968  0.82032  0.25000  1
 Si  Si1  1  0.95879  0.04121  0.75000  1
 Si  Si2  1  0.04121  0.95879  0.25000  1
 Si  Si3  1  0.25040  0.74960  0.75000  1
 Si  Si4  1  0.74960  0.25040  0.25000  1
 Th  Th1  1  0.60812  0.39188  0.75000  1
 Th  Th2  1  0.39188  0.60812  0.25000  1
