CIF file written using JARVIS-Tools package.
data_Er2SiGe
_symmetry_space_group_name_H-M  'Amm2'
_cell_length_a       5.66344
_cell_length_b       5.66344
_cell_length_c       3.86613
_cell_angle_alpha    90
_cell_angle_beta     90
_cell_angle_gamma    136.197

_symmetry_Int_Tables_number  38
_chemical_formula_structural  Er2SiGe
_chemical_formula_sum  Er2SiGe
_cell_volume  85.83285745235457
_cell_formula_units_Z  1
loop_
  _symmetry_equiv_pos_site_id
 _symmetry_equiv_pos_as_xyz
 1  'x, y, z'
loop_
 _atom_site_type_symbol
 _atom_site_label
 _atom_site_symmetry_multiplicity
 _atom_site_fract_x
 _atom_site_fract_y
 _atom_site_fract_z
 _atom_site_fract_occupancy
 Er  Er1  1  0.13874  0.86126  0.50000  1
 Er  Er2  1  0.86012  0.13988  0.00000  1
 Ge  Ge1  1  0.41703  0.58297  0.50000  1
 Si  Si1  1  0.58411  0.41589  0.00000  1
