CIF file written using JARVIS-Tools package.
data_TiCu3
_symmetry_space_group_name_H-M  'Pmmn'
_cell_length_a       4.32647
_cell_length_b       4.42629
_cell_length_c       5.46077
_cell_angle_alpha    90
_cell_angle_beta     90
_cell_angle_gamma    90

_symmetry_Int_Tables_number  59
_chemical_formula_structural  TiCu3
_chemical_formula_sum  Ti2Cu6
_cell_volume  104.57481582842036
_cell_formula_units_Z  2
loop_
  _symmetry_equiv_pos_site_id
 _symmetry_equiv_pos_as_xyz
 1  'x, y, z'
loop_
 _atom_site_type_symbol
 _atom_site_label
 _atom_site_symmetry_multiplicity
 _atom_site_fract_x
 _atom_site_fract_y
 _atom_site_fract_z
 _atom_site_fract_occupancy
 Cu  Cu1  1  0.00000  0.83183  0.74607  1
 Cu  Cu2  1  0.50000  0.16817  0.75393  1
 Cu  Cu3  1  0.50000  0.68004  0.00000  1
 Cu  Cu4  1  0.00000  0.31996  0.50000  1
 Cu  Cu5  1  0.50000  0.16817  0.24607  1
 Cu  Cu6  1  0.00000  0.83183  0.25393  1
 Ti  Ti1  1  0.50000  0.66190  0.50000  1
 Ti  Ti2  1  0.00000  0.33810  0.00000  1
