CIF file written using JARVIS-Tools package.
data_BaCaAlF7
_symmetry_space_group_name_H-M  'P2/c'
_cell_length_a       5.37851
_cell_length_b       5.39745
_cell_length_c       19.5172
_cell_angle_alpha    90
_cell_angle_beta     103.76
_cell_angle_gamma    90

_symmetry_Int_Tables_number  13
_chemical_formula_structural  BaCaAlF7
_chemical_formula_sum  Ba4Ca4Al4F28
_cell_volume  550.3275120147158
_cell_formula_units_Z  4
loop_
  _symmetry_equiv_pos_site_id
 _symmetry_equiv_pos_as_xyz
 1  'x, y, z'
loop_
 _atom_site_type_symbol
 _atom_site_label
 _atom_site_symmetry_multiplicity
 _atom_site_fract_x
 _atom_site_fract_y
 _atom_site_fract_z
 _atom_site_fract_occupancy
 Al  Al1  1  0.18151  0.77403  0.88053  1
 Al  Al2  1  0.18151  0.22597  0.38053  1
 Al  Al3  1  0.81849  0.22597  0.11947  1
 Al  Al4  1  0.81849  0.77403  0.61947  1
 Ba  Ba1  1  0.68147  0.76143  0.43252  1
 Ba  Ba2  1  0.68147  0.23857  0.93252  1
 Ba  Ba3  1  0.31853  0.23857  0.56748  1
 Ba  Ba4  1  0.31853  0.76143  0.06748  1
 Ca  Ca1  1  0.00000  0.79446  0.25000  1
 Ca  Ca2  1  0.50000  0.67870  0.75000  1
 Ca  Ca3  1  0.00000  0.20554  0.75000  1
 Ca  Ca4  1  0.50000  0.32130  0.25000  1
 F  F1  1  0.72462  0.63828  0.30770  1
 F  F2  1  0.49826  0.71889  0.93965  1
 F  F3  1  0.49826  0.28111  0.43965  1
 F  F4  1  0.50174  0.28111  0.06035  1
 F  F5  1  0.34260  0.96997  0.82423  1
 F  F6  1  0.16062  0.04887  0.93426  1
 F  F7  1  0.65740  0.03003  0.17577  1
 F  F8  1  0.16062  0.95113  0.43426  1
 F  F9  1  0.83938  0.95113  0.06574  1
 F  F10  1  0.83938  0.04887  0.56574  1
 F  F11  1  0.50174  0.71889  0.56035  1
 F  F12  1  0.34260  0.03003  0.32423  1
 F  F13  1  0.65740  0.96997  0.67577  1
 F  F14  1  0.76077  0.51353  0.67369  1
 F  F15  1  0.23923  0.48647  0.32631  1
 F  F16  1  0.03570  0.40707  0.43632  1
 F  F17  1  0.27538  0.36172  0.69230  1
 F  F18  1  0.23923  0.51353  0.82631  1
 F  F19  1  0.96430  0.59293  0.56368  1
 F  F20  1  0.76077  0.48647  0.17369  1
 F  F21  1  0.72462  0.36172  0.80770  1
 F  F22  1  0.11754  0.13880  0.18125  1
 F  F23  1  0.88246  0.86120  0.81875  1
 F  F24  1  0.11754  0.86120  0.68125  1
 F  F25  1  0.96430  0.40707  0.06368  1
 F  F26  1  0.88246  0.13880  0.31875  1
 F  F27  1  0.03570  0.59293  0.93632  1
 F  F28  1  0.27538  0.63828  0.19230  1
