CIF file written using JARVIS-Tools package.
data_Dy2Te5O13
_symmetry_space_group_name_H-M  'P-1'
_cell_length_a       6.9728
_cell_length_b       8.63557
_cell_length_c       10.558
_cell_angle_alpha    89.3178
_cell_angle_beta     92.9395
_cell_angle_gamma    104.904

_symmetry_Int_Tables_number  2
_chemical_formula_structural  Dy2Te5O13
_chemical_formula_sum  Dy4Te0O26
_cell_volume  613.5460176311291
_cell_formula_units_Z  2
loop_
  _symmetry_equiv_pos_site_id
 _symmetry_equiv_pos_as_xyz
 1  'x, y, z'
loop_
 _atom_site_type_symbol
 _atom_site_label
 _atom_site_symmetry_multiplicity
 _atom_site_fract_x
 _atom_site_fract_y
 _atom_site_fract_z
 _atom_site_fract_occupancy
 Dy  Dy1  1  0.55421  0.47074  0.82037  1
 Dy  Dy2  1  0.99786  0.26495  0.76216  1
 Dy  Dy3  1  0.00214  0.73505  0.23784  1
 Dy  Dy4  1  0.44579  0.52926  0.17963  1
 O  O1  1  0.33833  0.48792  0.38533  1
 O  O2  1  0.23881  0.50572  0.81325  1
 O  O3  1  0.05971  0.98197  0.31440  1
 O  O4  1  0.32850  0.25676  0.22981  1
 O  O5  1  0.46639  0.32560  0.00292  1
 O  O6  1  0.68756  0.73711  0.28976  1
 O  O7  1  0.05896  0.17968  0.96611  1
 O  O8  1  0.76119  0.49428  0.18675  1
 O  O9  1  0.94104  0.82032  0.03389  1
 O  O10  1  0.31244  0.26289  0.71024  1
 O  O11  1  0.66167  0.51208  0.61467  1
 O  O12  1  0.46178  0.81025  0.48704  1
 O  O13  1  0.87918  0.48779  0.89182  1
 O  O14  1  0.12082  0.51221  0.10818  1
 O  O15  1  0.65598  0.99061  0.12488  1
 O  O16  1  0.66737  0.22014  0.77665  1
 O  O17  1  0.67150  0.74324  0.77019  1
 O  O18  1  0.94029  0.01803  0.68560  1
 O  O19  1  0.06631  0.73236  0.71805  1
 O  O20  1  0.95540  0.34905  0.56233  1
 O  O21  1  0.34402  0.00939  0.87512  1
 O  O22  1  0.53361  0.67440  0.99708  1
 O  O23  1  0.33263  0.77986  0.22335  1
 O  O24  1  0.04460  0.65095  0.43767  1
 O  O25  1  0.93369  0.26764  0.28195  1
 O  O26  1  0.53822  0.18975  0.51296  1
 Te  Te1  1  0.43300  0.09135  0.69501  1
 Te  Te2  1  0.27372  0.60672  0.52073  1
 Te  Te3  1  0.72628  0.39328  0.47927  1
 Te  Te4  1  0.70936  0.88270  0.97070  1
 Te  Te5  1  0.84342  0.80326  0.63303  1
 Te  Te6  1  0.56700  0.90865  0.30499  1
 Te  Te7  1  0.12512  0.65453  0.89287  1
 Te  Te8  1  0.15658  0.19674  0.36697  1
 Te  Te9  1  0.87488  0.34547  0.10713  1
 Te  Te10  1  0.29064  0.11730  0.02930  1
