CIF file written using JARVIS-Tools package.
data_ZnBr2
_symmetry_space_group_name_H-M  'R-3m'
_cell_length_a       6.58867
_cell_length_b       6.58867
_cell_length_c       6.58867
_cell_angle_alpha    33.297
_cell_angle_beta     33.297
_cell_angle_gamma    33.2969

_symmetry_Int_Tables_number  166
_chemical_formula_structural  ZnBr2
_chemical_formula_sum  ZnBr2
_cell_volume  76.7469513743503
_cell_formula_units_Z  1
loop_
  _symmetry_equiv_pos_site_id
 _symmetry_equiv_pos_as_xyz
 1  'x, y, z'
loop_
 _atom_site_type_symbol
 _atom_site_label
 _atom_site_symmetry_multiplicity
 _atom_site_fract_x
 _atom_site_fract_y
 _atom_site_fract_z
 _atom_site_fract_occupancy
 Br  Br1  1  0.74653  0.74653  0.74653  1
 Br  Br2  1  0.25347  0.25347  0.25347  1
 Zn  Zn1  1  0.00000  0.00000  0.00000  1
