CIF file written using JARVIS-Tools package.
data_Cd2GaAgSe4
_symmetry_space_group_name_H-M  'Pm'
_cell_length_a       4.22324
_cell_length_b       7.05352
_cell_length_c       7.50487
_cell_angle_alpha    89.4524
_cell_angle_beta     90
_cell_angle_gamma    90

_symmetry_Int_Tables_number  6
_chemical_formula_structural  Cd2GaAgSe4
_chemical_formula_sum  Cd2GaAgSe4
_cell_volume  223.5503694210434
_cell_formula_units_Z  1
loop_
  _symmetry_equiv_pos_site_id
 _symmetry_equiv_pos_as_xyz
 1  'x, y, z'
loop_
 _atom_site_type_symbol
 _atom_site_label
 _atom_site_symmetry_multiplicity
 _atom_site_fract_x
 _atom_site_fract_y
 _atom_site_fract_z
 _atom_site_fract_occupancy
 Ag  Ag1  1  0.00000  0.97980  0.67105  1
 Cd  Cd1  1  0.50000  0.00434  0.17060  1
 Cd  Cd2  1  0.50000  0.46145  0.81964  1
 Ga  Ga1  1  0.00000  0.48006  0.33777  1
 Se  Se1  1  0.50000  0.60545  0.17598  1
 Se  Se2  1  0.50000  0.09389  0.83709  1
 Se  Se3  1  0.00000  0.13486  0.34838  1
 Se  Se4  1  0.00000  0.60895  0.63949  1
