CIF file written using JARVIS-Tools package.
data_Li2ZnCu3
_symmetry_space_group_name_H-M  'R-3m'
_cell_length_a       4.93691
_cell_length_b       4.93692
_cell_length_c       4.93691
_cell_angle_alpha    59.6975
_cell_angle_beta     59.6973
_cell_angle_gamma    59.6974

_symmetry_Int_Tables_number  166
_chemical_formula_structural  Li2ZnCu3
_chemical_formula_sum  Li2ZnCu3
_cell_volume  84.49991923326293
_cell_formula_units_Z  1
loop_
  _symmetry_equiv_pos_site_id
 _symmetry_equiv_pos_as_xyz
 1  'x, y, z'
loop_
 _atom_site_type_symbol
 _atom_site_label
 _atom_site_symmetry_multiplicity
 _atom_site_fract_x
 _atom_site_fract_y
 _atom_site_fract_z
 _atom_site_fract_occupancy
 Cu  Cu1  1  0.50000  0.00000  0.50000  1
 Cu  Cu2  1  0.00000  0.50000  0.50000  1
 Cu  Cu3  1  0.50000  0.50000  0.00000  1
 Li  Li1  1  0.12236  0.12236  0.12236  1
 Li  Li2  1  0.87764  0.87764  0.87764  1
 Zn  Zn1  1  0.50000  0.50000  0.50000  1
