CIF file written using JARVIS-Tools package.
data_BaZrP2O8
_symmetry_space_group_name_H-M  'C2/m'
_cell_length_a       5.05084
_cell_length_b       5.05084
_cell_length_c       7.93414
_cell_angle_alpha    86.9774
_cell_angle_beta     86.9774
_cell_angle_gamma    64.2725

_symmetry_Int_Tables_number  12
_chemical_formula_structural  BaZrP2O8
_chemical_formula_sum  BaZrP2O8
_cell_volume  181.9884710365621
_cell_formula_units_Z  1
loop_
  _symmetry_equiv_pos_site_id
 _symmetry_equiv_pos_as_xyz
 1  'x, y, z'
loop_
 _atom_site_type_symbol
 _atom_site_label
 _atom_site_symmetry_multiplicity
 _atom_site_fract_x
 _atom_site_fract_y
 _atom_site_fract_z
 _atom_site_fract_occupancy
 Ba  Ba1  1  -0.00000  -0.00000  0.50000  1
 O  O1  1  0.31335  0.31335  0.59941  1
 O  O2  1  0.68665  0.68665  0.40059  1
 O  O3  1  0.76747  0.29688  0.19150  1
 O  O4  1  0.29688  0.76747  0.19150  1
 O  O5  1  0.76909  0.76909  0.08255  1
 O  O6  1  0.23253  0.70312  0.80850  1
 O  O7  1  0.23091  0.23091  0.91745  1
 O  O8  1  0.70312  0.23253  0.80850  1
 P  P1  1  0.63408  0.63408  0.22104  1
 P  P2  1  0.36592  0.36592  0.77896  1
 Zr  Zr1  1  0.00000  0.00000  0.00000  1
