CIF file written using JARVIS-Tools package.
data_TlAsPd6
_symmetry_space_group_name_H-M  'R-3m'
_cell_length_a       7.76713
_cell_length_b       7.76713
_cell_length_c       7.76713
_cell_angle_alpha    33.9807
_cell_angle_beta     33.9807
_cell_angle_gamma    33.9807

_symmetry_Int_Tables_number  166
_chemical_formula_structural  TlAsPd6
_chemical_formula_sum  TlAsPd6
_cell_volume  130.4724335489242
_cell_formula_units_Z  1
loop_
  _symmetry_equiv_pos_site_id
 _symmetry_equiv_pos_as_xyz
 1  'x, y, z'
loop_
 _atom_site_type_symbol
 _atom_site_label
 _atom_site_symmetry_multiplicity
 _atom_site_fract_x
 _atom_site_fract_y
 _atom_site_fract_z
 _atom_site_fract_occupancy
 As  As1  1  0.00000  0.00000  0.00000  1
 Pd  Pd1  1  0.63284  0.63284  0.63284  1
 Pd  Pd2  1  0.11352  0.11352  0.11352  1
 Pd  Pd3  1  0.88648  0.88648  0.88648  1
 Pd  Pd4  1  0.36716  0.36716  0.36716  1
 Pd  Pd5  1  0.24200  0.24200  0.24200  1
 Pd  Pd6  1  0.75800  0.75800  0.75800  1
 Tl  Tl1  1  0.50000  0.50000  0.50000  1
