CIF file written using JARVIS-Tools package.
data_SmSnF7
_symmetry_space_group_name_H-M  'P2_1/c'
_cell_length_a       9.06972
_cell_length_b       5.62436
_cell_length_c       12.27
_cell_angle_alpha    90
_cell_angle_beta     117.77
_cell_angle_gamma    90

_symmetry_Int_Tables_number  14
_chemical_formula_structural  SmSnF7
_chemical_formula_sum  Sm4Sn4F28
_cell_volume  553.8180909821175
_cell_formula_units_Z  4
loop_
  _symmetry_equiv_pos_site_id
 _symmetry_equiv_pos_as_xyz
 1  'x, y, z'
loop_
 _atom_site_type_symbol
 _atom_site_label
 _atom_site_symmetry_multiplicity
 _atom_site_fract_x
 _atom_site_fract_y
 _atom_site_fract_z
 _atom_site_fract_occupancy
 F  F1  1  0.96349  0.09849  0.76926  1
 F  F2  1  0.97634  0.24210  0.55280  1
 F  F3  1  0.48096  0.22001  0.36307  1
 F  F4  1  0.51904  0.77999  0.63693  1
 F  F5  1  0.48096  0.27999  0.86307  1
 F  F6  1  0.03651  0.90151  0.23074  1
 F  F7  1  0.51904  0.72001  0.13693  1
 F  F8  1  0.27602  0.03342  0.13759  1
 F  F9  1  0.70902  0.44214  0.58520  1
 F  F10  1  0.29098  0.55786  0.41480  1
 F  F11  1  0.70902  0.05786  0.08520  1
 F  F12  1  0.72573  0.55993  0.04260  1
 F  F13  1  0.27427  0.05993  0.45740  1
 F  F14  1  0.27427  0.44007  0.95740  1
 F  F15  1  0.72573  0.94007  0.54260  1
 F  F16  1  0.29098  0.94214  0.91480  1
 F  F17  1  0.03651  0.59849  0.73074  1
 F  F18  1  0.96349  0.40151  0.26926  1
 F  F19  1  0.97634  0.25790  0.05280  1
 F  F20  1  0.02366  0.74210  0.94720  1
 F  F21  1  0.74279  0.05439  0.32492  1
 F  F22  1  0.25721  0.55439  0.17508  1
 F  F23  1  0.25721  0.94561  0.67508  1
 F  F24  1  0.02366  0.75790  0.44720  1
 F  F25  1  0.27602  0.46658  0.63759  1
 F  F26  1  0.72398  0.53342  0.36241  1
 F  F27  1  0.72398  0.96658  0.86241  1
 F  F28  1  0.74279  0.44561  0.82492  1
 Sm  Sm1  1  0.81232  0.74058  0.23522  1
 Sm  Sm2  1  0.18768  0.24058  0.26478  1
 Sm  Sm3  1  0.18768  0.25942  0.76478  1
 Sm  Sm4  1  0.81232  0.75942  0.73522  1
 Sn  Sn1  1  0.72817  0.25629  0.95766  1
 Sn  Sn2  1  0.27183  0.75629  0.54234  1
 Sn  Sn3  1  0.27183  0.74371  0.04234  1
 Sn  Sn4  1  0.72817  0.24371  0.45766  1
