CIF file written using JARVIS-Tools package.
data_TlCu6S4
_symmetry_space_group_name_H-M  'I4/mmm'
_cell_length_a       3.93635
_cell_length_b       3.93635
_cell_length_c       12.4659
_cell_angle_alpha    99.0842
_cell_angle_beta     99.0842
_cell_angle_gamma    90

_symmetry_Int_Tables_number  139
_chemical_formula_structural  TlCu6S4
_chemical_formula_sum  TlCu6S4
_cell_volume  188.27993020331976
_cell_formula_units_Z  1
loop_
  _symmetry_equiv_pos_site_id
 _symmetry_equiv_pos_as_xyz
 1  'x, y, z'
loop_
 _atom_site_type_symbol
 _atom_site_label
 _atom_site_symmetry_multiplicity
 _atom_site_fract_x
 _atom_site_fract_y
 _atom_site_fract_z
 _atom_site_fract_occupancy
 Cu  Cu1  1  0.25000  0.75000  0.50000  1
 Cu  Cu2  1  0.37202  0.87202  0.74404  1
 Cu  Cu3  1  0.62798  0.12798  0.25596  1
 Cu  Cu4  1  0.12798  0.62798  0.25596  1
 Cu  Cu5  1  0.87202  0.37202  0.74404  1
 Cu  Cu6  1  0.75000  0.25000  0.50000  1
 S  S1  1  0.42045  0.42045  0.84089  1
 S  S2  1  0.19398  0.19398  0.38796  1
 S  S3  1  0.80602  0.80602  0.61204  1
 S  S4  1  0.57955  0.57955  0.15911  1
 Tl  Tl1  1  0.00000  0.00000  0.00000  1
