CIF file written using JARVIS-Tools package.
data_Na2Te4MoO12
_symmetry_space_group_name_H-M  'C2/c'
_cell_length_a       5.79525
_cell_length_b       9.19591
_cell_length_c       11.2749
_cell_angle_alpha    104.771
_cell_angle_beta     90
_cell_angle_gamma    108.367

_symmetry_Int_Tables_number  15
_chemical_formula_structural  Na2Te4MoO12
_chemical_formula_sum  Na4Te8Mo2O24
_cell_volume  549.2940423189646
_cell_formula_units_Z  2
loop_
  _symmetry_equiv_pos_site_id
 _symmetry_equiv_pos_as_xyz
 1  'x, y, z'
loop_
 _atom_site_type_symbol
 _atom_site_label
 _atom_site_symmetry_multiplicity
 _atom_site_fract_x
 _atom_site_fract_y
 _atom_site_fract_z
 _atom_site_fract_occupancy
 Mo  Mo1  1  0.66891  -0.00000  0.25000  1
 Mo  Mo2  1  0.33109  0.00000  0.75000  1
 Na  Na1  1  0.98011  0.42579  0.26963  1
 Na  Na2  1  0.55432  0.57421  0.23037  1
 Na  Na3  1  0.01989  0.57421  0.73037  1
 Na  Na4  1  0.44568  0.42579  0.76963  1
 O  O1  1  0.98608  0.68226  0.24531  1
 O  O2  1  0.34475  0.67353  0.90579  1
 O  O3  1  0.17096  0.48426  0.07016  1
 O  O4  1  0.65525  0.32647  0.09421  1
 O  O5  1  0.32878  0.67353  0.40579  1
 O  O6  1  0.82904  0.51574  0.92984  1
 O  O7  1  0.30382  0.31774  0.25469  1
 O  O8  1  0.68670  0.51574  0.42984  1
 O  O9  1  0.11975  0.95593  0.85856  1
 O  O10  1  0.50354  0.21948  0.83885  1
 O  O11  1  0.28406  0.78052  0.66115  1
 O  O12  1  0.49646  0.78052  0.16115  1
 O  O13  1  0.71594  0.21948  0.33885  1
 O  O14  1  0.31330  0.48426  0.57016  1
 O  O15  1  0.01392  0.31774  0.75469  1
 O  O16  1  0.38951  0.02149  0.13290  1
 O  O17  1  0.36802  0.97851  0.36710  1
 O  O18  1  0.67122  0.32647  0.59421  1
 O  O19  1  0.63198  0.02149  0.63290  1
 O  O20  1  0.61049  0.97851  0.86710  1
 O  O21  1  0.88025  0.04407  0.14144  1
 O  O22  1  0.83618  0.95593  0.35856  1
 O  O23  1  0.69618  0.68226  0.74531  1
 O  O24  1  0.16382  0.04407  0.64144  1
 Te  Te1  1  0.52624  0.68899  0.56435  1
 Te  Te2  1  0.83724  0.31101  0.93565  1
 Te  Te3  1  0.47376  0.31101  0.43565  1
 Te  Te4  1  0.16276  0.68899  0.06435  1
 Te  Te5  1  0.68657  0.81169  0.90554  1
 Te  Te6  1  0.87489  0.18831  0.59446  1
 Te  Te7  1  0.31343  0.18831  0.09446  1
 Te  Te8  1  0.12511  0.81169  0.40554  1
