CIF file written using JARVIS-Tools package.
data_Te
_symmetry_space_group_name_H-M  'C2/m'
_cell_length_a       5.84671
_cell_length_b       4.43158
_cell_length_c       4.43936
_cell_angle_alpha    119.942
_cell_angle_beta     90.2551
_cell_angle_gamma    90

_symmetry_Int_Tables_number  12
_chemical_formula_structural  Te
_chemical_formula_sum  Te3
_cell_volume  99.67082369192075
_cell_formula_units_Z  3
loop_
  _symmetry_equiv_pos_site_id
 _symmetry_equiv_pos_as_xyz
 1  'x, y, z'
loop_
 _atom_site_type_symbol
 _atom_site_label
 _atom_site_symmetry_multiplicity
 _atom_site_fract_x
 _atom_site_fract_y
 _atom_site_fract_z
 _atom_site_fract_occupancy
 Te  Te1  1  0.66454  0.68368  0.36736  1
 Te  Te2  1  0.33546  0.31632  0.63264  1
 Te  Te3  1  0.00000  0.00000  0.00000  1
