CIF file written using JARVIS-Tools package.
data_NdO3
_symmetry_space_group_name_H-M  'P1'
_cell_length_a       4.15386
_cell_length_b       4.24227
_cell_length_c       7.69669
_cell_angle_alpha    79.2451
_cell_angle_beta     106.257
_cell_angle_gamma    119.944

_symmetry_Int_Tables_number  1
_chemical_formula_structural  NdO3
_chemical_formula_sum  Nd2O6
_cell_volume  112.64698811899603
_cell_formula_units_Z  2
loop_
  _symmetry_equiv_pos_site_id
 _symmetry_equiv_pos_as_xyz
 1  'x, y, z'
loop_
 _atom_site_type_symbol
 _atom_site_label
 _atom_site_symmetry_multiplicity
 _atom_site_fract_x
 _atom_site_fract_y
 _atom_site_fract_z
 _atom_site_fract_occupancy
 Nd  Nd1  1  0.27059  0.78402  0.74669  1
 Nd  Nd2  1  0.76780  0.18132  0.35510  1
 O  O1  1  0.91068  0.13151  0.66537  1
 O  O2  1  0.30717  0.43749  0.18212  1
 O  O3  1  0.11985  0.82195  0.41593  1
 O  O4  1  0.43052  0.77238  0.09292  1
 O  O5  1  0.66085  0.43788  0.86550  1
 O  O6  1  0.53268  0.43690  0.67450  1
