CIF file written using JARVIS-Tools package.
data_AsSeI
_symmetry_space_group_name_H-M  'P2_1/c'
_cell_length_a       8.95891
_cell_length_b       4.00504
_cell_length_c       13.7287
_cell_angle_alpha    90
_cell_angle_beta     132.599
_cell_angle_gamma    90

_symmetry_Int_Tables_number  14
_chemical_formula_structural  AsSeI
_chemical_formula_sum  As4Se4I4
_cell_volume  362.6072427575154
_cell_formula_units_Z  4
loop_
  _symmetry_equiv_pos_site_id
 _symmetry_equiv_pos_as_xyz
 1  'x, y, z'
loop_
 _atom_site_type_symbol
 _atom_site_label
 _atom_site_symmetry_multiplicity
 _atom_site_fract_x
 _atom_site_fract_y
 _atom_site_fract_z
 _atom_site_fract_occupancy
 As  As1  1  0.49874  0.89418  0.13730  1
 As  As2  1  0.50126  0.10582  0.86270  1
 As  As3  1  0.49874  0.60582  0.63730  1
 As  As4  1  0.50126  0.39418  0.36270  1
 I  I1  1  0.79870  0.53526  0.07971  1
 I  I2  1  0.79870  0.96474  0.57971  1
 I  I3  1  0.20130  0.03526  0.42029  1
 I  I4  1  0.20130  0.46474  0.92029  1
 Se  Se1  1  0.28166  0.94112  0.18747  1
 Se  Se2  1  0.28166  0.55888  0.68747  1
 Se  Se3  1  0.71834  0.44112  0.31253  1
 Se  Se4  1  0.71834  0.05888  0.81253  1
