CIF file written using JARVIS-Tools package.
data_Na2TiTeO6
_symmetry_space_group_name_H-M  'R3'
_cell_length_a       6.04736
_cell_length_b       6.04735
_cell_length_c       6.04734
_cell_angle_alpha    51.6964
_cell_angle_beta     51.6964
_cell_angle_gamma    51.6965

_symmetry_Int_Tables_number  146
_chemical_formula_structural  Na2TiTeO6
_chemical_formula_sum  Na2TiTeO6
_cell_volume  125.82494021007696
_cell_formula_units_Z  1
loop_
  _symmetry_equiv_pos_site_id
 _symmetry_equiv_pos_as_xyz
 1  'x, y, z'
loop_
 _atom_site_type_symbol
 _atom_site_label
 _atom_site_symmetry_multiplicity
 _atom_site_fract_x
 _atom_site_fract_y
 _atom_site_fract_z
 _atom_site_fract_occupancy
 Na  Na1  1  0.85793  0.85793  0.85793  1
 Na  Na2  1  0.13800  0.13800  0.13800  1
 O  O1  1  0.68546  0.06370  0.46623  1
 O  O2  1  0.46623  0.68546  0.06370  1
 O  O3  1  0.06370  0.46623  0.68546  1
 O  O4  1  0.30815  0.94552  0.53798  1
 O  O5  1  0.53798  0.30815  0.94552  1
 O  O6  1  0.94552  0.53798  0.30815  1
 Te  Te1  1  0.34185  0.34185  0.34185  1
 Ti  Ti1  1  0.65517  0.65517  0.65517  1
