CIF file written using JARVIS-Tools package.
data_N
_symmetry_space_group_name_H-M  'I2_13'
_cell_length_a       3.2909
_cell_length_b       3.2909
_cell_length_c       3.2909
_cell_angle_alpha    109.471
_cell_angle_beta     109.471
_cell_angle_gamma    109.471

_symmetry_Int_Tables_number  199
_chemical_formula_structural  N
_chemical_formula_sum  N4
_cell_volume  27.43593573752102
_cell_formula_units_Z  4
loop_
  _symmetry_equiv_pos_site_id
 _symmetry_equiv_pos_as_xyz
 1  'x, y, z'
loop_
 _atom_site_type_symbol
 _atom_site_label
 _atom_site_symmetry_multiplicity
 _atom_site_fract_x
 _atom_site_fract_y
 _atom_site_fract_z
 _atom_site_fract_occupancy
 N  N1  1  0.32779  0.82779  0.32779  1
 N  N2  1  0.50000  0.50000  0.17221  1
 N  N3  1  0.00000  0.67221  0.50000  1
 N  N4  1  0.17221  -0.00000  -0.00000  1
