CIF file written using JARVIS-Tools package.
data_RbBe2P3O10
_symmetry_space_group_name_H-M  'C2/c'
_cell_length_a       7.52631
_cell_length_b       7.52631
_cell_length_c       8.9337
_cell_angle_alpha    67.9344
_cell_angle_beta     67.9344
_cell_angle_gamma    71.0498

_symmetry_Int_Tables_number  15
_chemical_formula_structural  RbBe2P3O10
_chemical_formula_sum  Rb2Be4P6O20
_cell_volume  424.58634177867816
_cell_formula_units_Z  2
loop_
  _symmetry_equiv_pos_site_id
 _symmetry_equiv_pos_as_xyz
 1  'x, y, z'
loop_
 _atom_site_type_symbol
 _atom_site_label
 _atom_site_symmetry_multiplicity
 _atom_site_fract_x
 _atom_site_fract_y
 _atom_site_fract_z
 _atom_site_fract_occupancy
 Be  Be1  1  0.29920  0.21664  0.05993  1
 Be  Be2  1  0.70080  0.78336  0.94007  1
 Be  Be3  1  0.78336  0.70080  0.44007  1
 Be  Be4  1  0.21664  0.29920  0.55993  1
 O  O1  1  0.08574  0.12844  0.62320  1
 O  O2  1  0.72958  0.17610  0.64958  1
 O  O3  1  0.08899  0.46151  0.66511  1
 O  O4  1  0.81061  0.57363  0.90437  1
 O  O5  1  0.17610  0.72958  0.14958  1
 O  O6  1  0.91426  0.87156  0.37680  1
 O  O7  1  0.18939  0.42637  0.09563  1
 O  O8  1  0.12844  0.08574  0.12320  1
 O  O9  1  0.73957  0.59821  0.64073  1
 O  O10  1  0.59821  0.73957  0.14073  1
 O  O11  1  0.40179  0.26043  0.85927  1
 O  O12  1  0.27042  0.82390  0.35042  1
 O  O13  1  0.53849  0.91101  0.83489  1
 O  O14  1  0.87156  0.91426  0.87680  1
 O  O15  1  0.42637  0.18939  0.59563  1
 O  O16  1  0.26043  0.40179  0.35927  1
 O  O17  1  0.82390  0.27042  0.85042  1
 O  O18  1  0.57363  0.81061  0.40437  1
 O  O19  1  0.46151  0.08899  0.16511  1
 O  O20  1  0.91101  0.53849  0.33489  1
 P  P1  1  0.86996  0.49278  0.75692  1
 P  P2  1  0.13004  0.50722  0.24308  1
 P  P3  1  0.50722  0.13004  0.74308  1
 P  P4  1  0.11260  0.88740  0.25000  1
 P  P5  1  0.88740  0.11260  0.75000  1
 P  P6  1  0.49278  0.86996  0.25692  1
 Rb  Rb1  1  0.69785  0.30215  0.25000  1
 Rb  Rb2  1  0.30215  0.69785  0.75000  1
