CIF file written using JARVIS-Tools package.
data_CoAsS
_symmetry_space_group_name_H-M  'Pca2_1'
_cell_length_a       5.59887
_cell_length_b       5.60434
_cell_length_c       5.60793
_cell_angle_alpha    90
_cell_angle_beta     90
_cell_angle_gamma    90

_symmetry_Int_Tables_number  29
_chemical_formula_structural  CoAsS
_chemical_formula_sum  Co4As4S4
_cell_volume  175.9655996806258
_cell_formula_units_Z  4
loop_
  _symmetry_equiv_pos_site_id
 _symmetry_equiv_pos_as_xyz
 1  'x, y, z'
loop_
 _atom_site_type_symbol
 _atom_site_label
 _atom_site_symmetry_multiplicity
 _atom_site_fract_x
 _atom_site_fract_y
 _atom_site_fract_z
 _atom_site_fract_occupancy
 As  As1  1  0.38296  0.87913  0.37045  1
 As  As2  1  0.88296  0.62087  0.37045  1
 As  As3  1  0.38296  0.37913  0.62955  1
 As  As4  1  0.88296  0.12087  0.62955  1
 Co  Co1  1  0.50166  0.49420  0.23994  1
 Co  Co2  1  0.50166  0.99420  0.76006  1
 Co  Co3  1  0.00166  0.00580  0.23994  1
 Co  Co4  1  0.00166  0.50580  0.76006  1
 S  S1  1  0.62238  0.11877  0.12946  1
 S  S2  1  0.12238  0.38123  0.12946  1
 S  S3  1  0.12238  0.88123  0.87054  1
 S  S4  1  0.62238  0.61877  0.87054  1
