CIF file written using JARVIS-Tools package.
data_MnCoO4
_symmetry_space_group_name_H-M  'P2_1'
_cell_length_a       2.84804
_cell_length_b       5.68785
_cell_length_c       8.85777
_cell_angle_alpha    90
_cell_angle_beta     90
_cell_angle_gamma    60.1523

_symmetry_Int_Tables_number  4
_chemical_formula_structural  MnCoO4
_chemical_formula_sum  Mn2Co2O8
_cell_volume  124.45532245272422
_cell_formula_units_Z  2
loop_
  _symmetry_equiv_pos_site_id
 _symmetry_equiv_pos_as_xyz
 1  'x, y, z'
loop_
 _atom_site_type_symbol
 _atom_site_label
 _atom_site_symmetry_multiplicity
 _atom_site_fract_x
 _atom_site_fract_y
 _atom_site_fract_z
 _atom_site_fract_occupancy
 Co  Co1  1  0.50101  0.74930  0.50010  1
 Co  Co2  1  0.99899  0.00070  0.00010  1
 Mn  Mn1  1  0.99862  0.50080  0.99989  1
 Mn  Mn2  1  0.50138  0.24920  0.49989  1
 O  O1  1  0.66241  0.83702  0.10532  1
 O  O2  1  0.33022  0.66948  0.89261  1
 O  O3  1  0.16418  0.58570  0.39457  1
 O  O4  1  0.83759  0.91298  0.60532  1
 O  O5  1  0.16978  0.08052  0.39261  1
 O  O6  1  0.66665  0.33231  0.10751  1
 O  O7  1  0.33582  0.16430  0.89457  1
 O  O8  1  0.83335  0.41769  0.60751  1
