CIF file written using JARVIS-Tools package.
data_Tb2YbS4
_symmetry_space_group_name_H-M  'I-42d'
_cell_length_a       7.21957
_cell_length_b       7.21957
_cell_length_c       7.21957
_cell_angle_alpha    109.446
_cell_angle_beta     109.521
_cell_angle_gamma    109.446

_symmetry_Int_Tables_number  122
_chemical_formula_structural  Tb2YbS4
_chemical_formula_sum  Tb4Yb2S8
_cell_volume  289.6756907979828
_cell_formula_units_Z  2
loop_
  _symmetry_equiv_pos_site_id
 _symmetry_equiv_pos_as_xyz
 1  'x, y, z'
loop_
 _atom_site_type_symbol
 _atom_site_label
 _atom_site_symmetry_multiplicity
 _atom_site_fract_x
 _atom_site_fract_y
 _atom_site_fract_z
 _atom_site_fract_occupancy
 S  S1  1  0.99669  0.85517  0.49588  1
 S  S2  1  0.99588  0.35517  0.49669  1
 S  S3  1  0.50331  0.99918  0.85848  1
 S  S4  1  0.14152  0.14483  0.14070  1
 S  S5  1  0.35848  0.49918  0.00331  1
 S  S6  1  0.64070  0.64483  0.64152  1
 S  S7  1  0.50412  0.00082  0.35930  1
 S  S8  1  0.85930  0.50082  0.00412  1
 Tb  Tb1  1  0.25000  0.62832  0.37832  1
 Tb  Tb2  1  0.62168  0.37168  0.25000  1
 Tb  Tb3  1  0.75000  0.87168  0.12168  1
 Tb  Tb4  1  0.87832  0.12832  0.75000  1
 Yb  Yb1  1  0.12500  0.75000  0.87500  1
 Yb  Yb2  1  0.37500  0.25000  0.62500  1
