CIF file written using JARVIS-Tools package.
data_AsRu
_symmetry_space_group_name_H-M  'Pnma'
_cell_length_a       3.50773
_cell_length_b       5.69654
_cell_length_c       6.30519
_cell_angle_alpha    90
_cell_angle_beta     90
_cell_angle_gamma    90

_symmetry_Int_Tables_number  62
_chemical_formula_structural  AsRu
_chemical_formula_sum  As4Ru4
_cell_volume  125.98989344936443
_cell_formula_units_Z  4
loop_
  _symmetry_equiv_pos_site_id
 _symmetry_equiv_pos_as_xyz
 1  'x, y, z'
loop_
 _atom_site_type_symbol
 _atom_site_label
 _atom_site_symmetry_multiplicity
 _atom_site_fract_x
 _atom_site_fract_y
 _atom_site_fract_z
 _atom_site_fract_occupancy
 As  As1  1  0.25000  0.69711  0.07661  1
 As  As2  1  0.75000  0.30289  0.92339  1
 As  As3  1  0.25000  0.19711  0.42339  1
 As  As4  1  0.75000  0.80289  0.57661  1
 Ru  Ru1  1  0.25000  0.50111  0.70314  1
 Ru  Ru2  1  0.75000  0.49889  0.29686  1
 Ru  Ru3  1  0.25000  0.00111  0.79686  1
 Ru  Ru4  1  0.75000  0.99889  0.20314  1
