CIF file written using JARVIS-Tools package.
data_SnF4
_symmetry_space_group_name_H-M  'C2/c'
_cell_length_a       5.5904
_cell_length_b       5.20437
_cell_length_c       5.49929
_cell_angle_alpha    91.6591
_cell_angle_beta     120.633
_cell_angle_gamma    90.0168

_symmetry_Int_Tables_number  15
_chemical_formula_structural  SnF4
_chemical_formula_sum  Sn2F8
_cell_volume  137.59281445058053
_cell_formula_units_Z  2
loop_
  _symmetry_equiv_pos_site_id
 _symmetry_equiv_pos_as_xyz
 1  'x, y, z'
loop_
 _atom_site_type_symbol
 _atom_site_label
 _atom_site_symmetry_multiplicity
 _atom_site_fract_x
 _atom_site_fract_y
 _atom_site_fract_z
 _atom_site_fract_occupancy
 F  F1  1  0.04409  0.16588  0.78092  1
 F  F2  1  0.45899  0.33515  0.22157  1
 F  F3  1  0.78552  0.83570  0.26173  1
 F  F4  1  0.97847  0.33568  0.26164  1
 F  F5  1  0.71756  0.66534  0.74078  1
 F  F6  1  0.52460  0.16536  0.74086  1
 F  F7  1  0.23832  0.66584  0.78106  1
 F  F8  1  0.26475  0.83519  0.22144  1
 Sn  Sn1  1  0.05716  0.50046  0.00123  1
 Sn  Sn2  1  0.44591  0.00056  0.00128  1
