CIF file written using JARVIS-Tools package.
data_RbMgAsH12O10
_symmetry_space_group_name_H-M  'Pmn2_1'
_cell_length_a       6.2103
_cell_length_b       6.97302
_cell_length_c       11.5152
_cell_angle_alpha    90
_cell_angle_beta     90
_cell_angle_gamma    90

_symmetry_Int_Tables_number  31
_chemical_formula_structural  RbMgAsH12O10
_chemical_formula_sum  Rb2Mg2As2H24O20
_cell_volume  498.65971214975133
_cell_formula_units_Z  2
loop_
  _symmetry_equiv_pos_site_id
 _symmetry_equiv_pos_as_xyz
 1  'x, y, z'
loop_
 _atom_site_type_symbol
 _atom_site_label
 _atom_site_symmetry_multiplicity
 _atom_site_fract_x
 _atom_site_fract_y
 _atom_site_fract_z
 _atom_site_fract_occupancy
 As  As1  1  0.98416  0.50000  0.51990  1
 As  As2  1  0.01584  0.00000  0.01990  1
 H  H1  1  0.80971  0.32212  0.31698  1
 H  H2  1  0.99338  0.11543  0.50473  1
 H  H3  1  0.40137  0.17841  0.03316  1
 H  H4  1  0.64129  0.73941  0.01938  1
 H  H5  1  0.83746  0.50000  0.85364  1
 H  H6  1  0.35871  0.23941  0.51938  1
 H  H7  1  0.19029  0.82212  0.81698  1
 H  H8  1  0.40137  0.82159  0.03316  1
 H  H9  1  0.72326  0.50000  0.72591  1
 H  H10  1  0.64129  0.26059  0.01938  1
 H  H11  1  0.19029  0.17788  0.81698  1
 H  H12  1  0.27674  0.00000  0.22591  1
 H  H13  1  0.21615  0.29629  0.69878  1
 H  H14  1  0.21615  0.70371  0.69878  1
 H  H15  1  0.78385  0.20371  0.19878  1
 H  H16  1  0.78385  0.79629  0.19878  1
 H  H17  1  0.00662  0.38457  0.00473  1
 H  H18  1  0.99338  0.88457  0.50473  1
 H  H19  1  0.35871  0.76059  0.51938  1
 H  H20  1  0.80971  0.67788  0.31698  1
 H  H21  1  0.16254  0.00000  0.35364  1
 H  H22  1  0.59863  0.67841  0.53316  1
 H  H23  1  0.00662  0.61543  0.00473  1
 H  H24  1  0.59863  0.32159  0.53316  1
 Mg  Mg1  1  0.38675  0.50000  0.88650  1
 Mg  Mg2  1  0.61325  0.00000  0.38650  1
 O  O1  1  0.95866  0.50000  0.37175  1
 O  O2  1  0.26738  0.00000  0.08451  1
 O  O3  1  0.30255  0.00000  0.31260  1
 O  O4  1  0.73262  0.50000  0.58451  1
 O  O5  1  0.48618  0.29251  0.00405  1
 O  O6  1  0.51382  0.79251  0.50405  1
 O  O7  1  0.28288  0.27775  0.77762  1
 O  O8  1  0.88505  0.79578  0.06571  1
 O  O9  1  0.88505  0.20422  0.06571  1
 O  O10  1  0.04134  0.00000  0.87175  1
 O  O11  1  0.71712  0.77775  0.27762  1
 O  O12  1  0.92995  0.00000  0.46358  1
 O  O13  1  0.69745  0.50000  0.81260  1
 O  O14  1  0.48618  0.70749  0.00405  1
 O  O15  1  0.07005  0.50000  0.96358  1
 O  O16  1  0.11495  0.70422  0.56571  1
 O  O17  1  0.71712  0.22225  0.27762  1
 O  O18  1  0.28288  0.72225  0.77762  1
 O  O19  1  0.11495  0.29578  0.56571  1
 O  O20  1  0.51382  0.20749  0.50405  1
 Rb  Rb1  1  0.34940  0.50000  0.23089  1
 Rb  Rb2  1  0.65060  0.00000  0.73089  1
