CIF file written using JARVIS-Tools package.
data_K2SmF5
_symmetry_space_group_name_H-M  'Pnma'
_cell_length_a       6.61145
_cell_length_b       7.44156
_cell_length_c       10.7866
_cell_angle_alpha    90
_cell_angle_beta     90
_cell_angle_gamma    90

_symmetry_Int_Tables_number  62
_chemical_formula_structural  K2SmF5
_chemical_formula_sum  K8Sm4F20
_cell_volume  530.6923445422539
_cell_formula_units_Z  4
loop_
  _symmetry_equiv_pos_site_id
 _symmetry_equiv_pos_as_xyz
 1  'x, y, z'
loop_
 _atom_site_type_symbol
 _atom_site_label
 _atom_site_symmetry_multiplicity
 _atom_site_fract_x
 _atom_site_fract_y
 _atom_site_fract_z
 _atom_site_fract_occupancy
 F  F1  1  0.90892  0.50638  0.49011  1
 F  F2  1  0.86252  0.00637  0.17221  1
 F  F3  1  0.13748  0.50637  0.82779  1
 F  F4  1  0.63748  0.00637  0.67221  1
 F  F5  1  0.34893  0.29105  0.57939  1
 F  F6  1  0.83285  0.50637  0.19940  1
 F  F7  1  0.16715  0.00637  0.80060  1
 F  F8  1  0.66715  0.50637  0.69940  1
 F  F9  1  0.33285  0.00637  0.30060  1
 F  F10  1  0.36252  0.50637  0.32779  1
 F  F11  1  0.34893  0.72170  0.57939  1
 F  F12  1  0.15107  0.72170  0.07939  1
 F  F13  1  0.40892  0.00638  0.00989  1
 F  F14  1  0.59108  0.50638  0.99011  1
 F  F15  1  0.09108  0.00638  0.50989  1
 F  F16  1  0.65107  0.79105  0.42061  1
 F  F17  1  0.15107  0.29105  0.07939  1
 F  F18  1  0.84893  0.79105  0.92061  1
 F  F19  1  0.84893  0.22170  0.92061  1
 F  F20  1  0.65107  0.22170  0.42061  1
 K  K1  1  0.03509  0.26030  0.32903  1
 K  K2  1  0.96491  0.76030  0.67097  1
 K  K3  1  0.46491  0.26030  0.82903  1
 K  K4  1  0.53509  0.76030  0.17097  1
 K  K5  1  0.03509  0.75245  0.32903  1
 K  K6  1  0.96491  0.25245  0.67097  1
 K  K7  1  0.46491  0.75245  0.82903  1
 K  K8  1  0.53509  0.25245  0.17097  1
 Sm  Sm1  1  0.43267  0.00638  0.50385  1
 Sm  Sm2  1  0.56733  0.50638  0.49615  1
 Sm  Sm3  1  0.93267  0.50638  0.99615  1
 Sm  Sm4  1  0.06733  0.00638  0.00385  1
