CIF file written using JARVIS-Tools package.
data_Ag
_symmetry_space_group_name_H-M  'R-3m'
_cell_length_a       2.91078
_cell_length_b       2.91078
_cell_length_c       7.36636
_cell_angle_alpha    101.395
_cell_angle_beta     78.605
_cell_angle_gamma    120

_symmetry_Int_Tables_number  166
_chemical_formula_structural  Ag
_chemical_formula_sum  Ag3
_cell_volume  52.62552610049579
_cell_formula_units_Z  3
loop_
  _symmetry_equiv_pos_site_id
 _symmetry_equiv_pos_as_xyz
 1  'x, y, z'
loop_
 _atom_site_type_symbol
 _atom_site_label
 _atom_site_symmetry_multiplicity
 _atom_site_fract_x
 _atom_site_fract_y
 _atom_site_fract_z
 _atom_site_fract_occupancy
 Ag  Ag1  1  0.00000  0.00000  0.00000  1
 Ag  Ag2  1  0.22230  0.77770  0.33310  1
 Ag  Ag3  1  0.77770  0.22230  0.66690  1
