CIF file written using JARVIS-Tools package.
data_Na2ZrCu2S4
_symmetry_space_group_name_H-M  'C2/m'
_cell_length_a       3.73212
_cell_length_b       7.05159
_cell_length_c       7.11214
_cell_angle_alpha    111.604
_cell_angle_beta     105.211
_cell_angle_gamma    90

_symmetry_Int_Tables_number  12
_chemical_formula_structural  Na2ZrCu2S4
_chemical_formula_sum  Na2ZrCu2S4
_cell_volume  166.95142578664505
_cell_formula_units_Z  1
loop_
  _symmetry_equiv_pos_site_id
 _symmetry_equiv_pos_as_xyz
 1  'x, y, z'
loop_
 _atom_site_type_symbol
 _atom_site_label
 _atom_site_symmetry_multiplicity
 _atom_site_fract_x
 _atom_site_fract_y
 _atom_site_fract_z
 _atom_site_fract_occupancy
 Cu  Cu1  1  0.67929  0.98901  0.35858  1
 Cu  Cu2  1  0.32071  0.01099  0.64142  1
 Na  Na1  1  0.13721  0.55961  0.27442  1
 Na  Na2  1  0.86279  0.44039  0.72558  1
 S  S1  1  0.20442  0.20595  0.40885  1
 S  S2  1  0.79558  0.79405  0.59115  1
 S  S3  1  0.50984  0.74997  0.01968  1
 S  S4  1  0.49016  0.25003  0.98032  1
 Zr  Zr1  1  0.00000  0.00000  0.00000  1
