CIF file written using JARVIS-Tools package.
data_Li3FeN2
_symmetry_space_group_name_H-M  'Ibam'
_cell_length_a       4.64481
_cell_length_b       4.76584
_cell_length_c       5.77452
_cell_angle_alpha    114.372
_cell_angle_beta     113.715
_cell_angle_gamma    90

_symmetry_Int_Tables_number  72
_chemical_formula_structural  Li3FeN2
_chemical_formula_sum  Li6Fe2N4
_cell_volume  104.4715534660559
_cell_formula_units_Z  2
loop_
  _symmetry_equiv_pos_site_id
 _symmetry_equiv_pos_as_xyz
 1  'x, y, z'
loop_
 _atom_site_type_symbol
 _atom_site_label
 _atom_site_symmetry_multiplicity
 _atom_site_fract_x
 _atom_site_fract_y
 _atom_site_fract_z
 _atom_site_fract_occupancy
 Fe  Fe1  1  0.75000  -0.00000  0.00000  1
 Fe  Fe2  1  0.25000  -0.00000  0.00000  1
 Li  Li1  1  0.75000  0.50000  0.00000  1
 Li  Li2  1  0.25000  0.50000  -0.00000  1
 Li  Li3  1  0.49291  0.74291  0.48582  1
 Li  Li4  1  0.00709  0.25709  0.51418  1
 Li  Li5  1  0.99291  0.74291  0.48582  1
 Li  Li6  1  0.50709  0.25709  0.51418  1
 N  N1  1  0.88543  0.10771  0.77085  1
 N  N2  1  0.61457  0.33685  0.22915  1
 N  N3  1  0.11457  0.89229  0.22915  1
 N  N4  1  0.38543  0.66315  0.77085  1
