CIF file written using JARVIS-Tools package.
data_Hg3As8S8Br6
_symmetry_space_group_name_H-M  'P2_1/c'
_cell_length_a       9.27573
_cell_length_b       11.6871
_cell_length_c       13.3685
_cell_angle_alpha    90
_cell_angle_beta     104.934
_cell_angle_gamma    90

_symmetry_Int_Tables_number  14
_chemical_formula_structural  Hg3As8S8Br6
_chemical_formula_sum  Hg6As6S6Br2
_cell_volume  1400.2787781790819
_cell_formula_units_Z  2
loop_
  _symmetry_equiv_pos_site_id
 _symmetry_equiv_pos_as_xyz
 1  'x, y, z'
loop_
 _atom_site_type_symbol
 _atom_site_label
 _atom_site_symmetry_multiplicity
 _atom_site_fract_x
 _atom_site_fract_y
 _atom_site_fract_z
 _atom_site_fract_occupancy
 As  As1  1  0.90478  0.81958  0.48809  1
 As  As2  1  0.09522  0.31958  0.01191  1
 As  As3  1  0.63922  0.85493  0.81002  1
 As  As4  1  0.90478  0.68042  0.98809  1
 As  As5  1  0.36078  0.14507  0.18998  1
 As  As6  1  0.64702  0.92347  0.42636  1
 As  As7  1  0.35298  0.07653  0.57364  1
 As  As8  1  0.60295  0.63362  0.49920  1
 As  As9  1  0.39705  0.13362  0.00080  1
 As  As10  1  0.60295  0.86638  -0.00080  1
 As  As11  1  0.35298  0.42347  0.07364  1
 As  As12  1  0.64702  0.57653  0.92636  1
 As  As13  1  0.63922  0.64507  0.31002  1
 As  As14  1  0.36078  0.35493  0.68998  1
 As  As15  1  0.39705  0.36638  0.50080  1
 As  As16  1  0.09522  0.18042  0.51191  1
 Br  Br1  1  0.13161  0.97858  0.33542  1
 Br  Br2  1  0.23708  0.88076  0.06840  1
 Br  Br3  1  0.73291  0.41761  0.72425  1
 Br  Br4  1  0.23708  0.61924  0.56840  1
 Br  Br5  1  0.26709  0.58239  0.27575  1
 Br  Br6  1  0.86839  0.02142  0.66458  1
 Br  Br7  1  0.76292  0.11924  0.93160  1
 Br  Br8  1  0.76292  0.38076  0.43160  1
 Br  Br9  1  0.13161  0.52142  0.83542  1
 Br  Br10  1  0.86839  0.47858  0.16458  1
 Br  Br11  1  0.73291  0.08239  0.22425  1
 Br  Br12  1  0.26709  0.91761  0.77575  1
 Hg  Hg1  1  0.24944  0.79201  0.31033  1
 Hg  Hg2  1  0.75056  0.29201  0.18967  1
 Hg  Hg3  1  0.24944  0.70799  0.81033  1
 Hg  Hg4  1  0.75056  0.20799  0.68967  1
 Hg  Hg5  1  0.00000  0.50000  0.50000  1
 Hg  Hg6  1  0.00000  0.00000  0.00000  1
 S  S1  1  0.83638  0.81569  0.09124  1
 S  S2  1  0.88476  0.80094  0.85093  1
 S  S3  1  0.88476  0.69906  0.35093  1
 S  S4  1  0.16362  0.18431  0.90876  1
 S  S5  1  0.11524  0.19906  0.14907  1
 S  S6  1  0.51024  0.68664  0.01060  1
 S  S7  1  0.83638  0.68431  0.59124  1
 S  S8  1  0.44162  0.17069  0.72764  1
 S  S9  1  0.55838  0.67069  0.77236  1
 S  S10  1  0.48976  0.31336  -0.01060  1
 S  S11  1  0.55838  0.82931  0.27236  1
 S  S12  1  0.16362  0.31569  0.40876  1
 S  S13  1  0.11524  0.30094  0.64907  1
 S  S14  1  0.44162  0.32931  0.22764  1
 S  S15  1  0.48976  0.18664  0.48940  1
 S  S16  1  0.51024  0.81336  0.51060  1
