CIF file written using JARVIS-Tools package.
data_Li5MnO5
_symmetry_space_group_name_H-M  'C2'
_cell_length_a       4.00261
_cell_length_b       5.0316
_cell_length_c       5.59295
_cell_angle_alpha    107.125
_cell_angle_beta     89.9981
_cell_angle_gamma    113.438

_symmetry_Int_Tables_number  5
_chemical_formula_structural  Li5MnO5
_chemical_formula_sum  Li5MnO5
_cell_volume  97.87942967978131
_cell_formula_units_Z  1
loop_
  _symmetry_equiv_pos_site_id
 _symmetry_equiv_pos_as_xyz
 1  'x, y, z'
loop_
 _atom_site_type_symbol
 _atom_site_label
 _atom_site_symmetry_multiplicity
 _atom_site_fract_x
 _atom_site_fract_y
 _atom_site_fract_z
 _atom_site_fract_occupancy
 Li  Li1  1  0.68261  0.36150  0.87668  1
 Li  Li2  1  0.69692  0.39289  0.34874  1
 Li  Li3  1  0.29212  0.58327  0.68185  1
 Li  Li4  1  0.30918  0.61464  0.15389  1
 Li  Li5  1  0.00825  0.98807  0.51528  1
 Mn  Mn1  1  0.94573  0.98808  0.01529  1
 O  O1  1  0.14533  0.27249  0.84756  1
 O  O2  1  0.51367  0.98807  0.01529  1
 O  O3  1  0.15454  0.29816  0.32715  1
 O  O4  1  0.84447  0.67799  0.70342  1
 O  O5  1  0.86090  0.70366  0.18301  1
