CIF file written using JARVIS-Tools package.
data_Sn2PClO4
_symmetry_space_group_name_H-M  'Ama2'
_cell_length_a       4.77351
_cell_length_b       5.06619
_cell_length_c       13.4036
_cell_angle_alpha    90
_cell_angle_beta     90
_cell_angle_gamma    118.107

_symmetry_Int_Tables_number  40
_chemical_formula_structural  Sn2PClO4
_chemical_formula_sum  Sn4P2Cl2O8
_cell_volume  285.91987373580565
_cell_formula_units_Z  2
loop_
  _symmetry_equiv_pos_site_id
 _symmetry_equiv_pos_as_xyz
 1  'x, y, z'
loop_
 _atom_site_type_symbol
 _atom_site_label
 _atom_site_symmetry_multiplicity
 _atom_site_fract_x
 _atom_site_fract_y
 _atom_site_fract_z
 _atom_site_fract_occupancy
 Cl  Cl1  1  0.45325  0.00000  0.00000  1
 Cl  Cl2  1  0.45325  0.00000  0.50000  1
 O  O1  1  0.72689  0.60065  0.15382  1
 O  O2  1  0.54986  0.35001  0.75000  1
 O  O3  1  0.07305  0.07931  0.25000  1
 O  O4  1  0.12624  0.39935  0.84618  1
 O  O5  1  0.72689  0.60065  0.34618  1
 O  O6  1  0.12624  0.39935  0.65382  1
 O  O7  1  0.19985  0.64999  0.25000  1
 O  O8  1  0.99374  0.92069  0.75000  1
 P  P1  1  0.91965  0.73017  0.25000  1
 P  P2  1  0.18949  0.26983  0.75000  1
 Sn  Sn1  1  0.22449  0.39317  0.10984  1
 Sn  Sn2  1  0.83132  0.60683  0.60984  1
 Sn  Sn3  1  0.83132  0.60683  0.89016  1
 Sn  Sn4  1  0.22449  0.39317  0.39016  1
