CIF file written using JARVIS-Tools package.
data_Sr2Mn3Sb2O2
_symmetry_space_group_name_H-M  'I4/mmm'
_cell_length_a       4.07275
_cell_length_b       4.07275
_cell_length_c       10.3671
_cell_angle_alpha    101.328
_cell_angle_beta     101.328
_cell_angle_gamma    90

_symmetry_Int_Tables_number  139
_chemical_formula_structural  Sr2Mn3Sb2O2
_chemical_formula_sum  Sr2Mn3Sb2O2
_cell_volume  165.19347243226585
_cell_formula_units_Z  1
loop_
  _symmetry_equiv_pos_site_id
 _symmetry_equiv_pos_as_xyz
 1  'x, y, z'
loop_
 _atom_site_type_symbol
 _atom_site_label
 _atom_site_symmetry_multiplicity
 _atom_site_fract_x
 _atom_site_fract_y
 _atom_site_fract_z
 _atom_site_fract_occupancy
 Mn  Mn1  1  0.00000  0.00000  0.00000  1
 Mn  Mn2  1  0.75000  0.25000  0.50000  1
 Mn  Mn3  1  0.25000  0.75000  0.50000  1
 O  O1  1  1.00000  0.50000  0.00000  1
 O  O2  1  0.50000  -0.00000  0.00000  1
 Sb  Sb1  1  0.83165  0.83165  0.66330  1
 Sb  Sb2  1  0.16835  0.16835  0.33670  1
 Sr  Sr1  1  0.41621  0.41621  0.83243  1
 Sr  Sr2  1  0.58379  0.58379  0.16757  1
