CIF file written using JARVIS-Tools package.
data_LiO3
_symmetry_space_group_name_H-M  'Imm2'
_cell_length_a       2.7548
_cell_length_b       3.96751
_cell_length_c       3.96751
_cell_angle_alpha    78.3671
_cell_angle_beta     69.6857
_cell_angle_gamma    69.6857

_symmetry_Int_Tables_number  44
_chemical_formula_structural  LiO3
_chemical_formula_sum  LiO3
_cell_volume  37.97458177591231
_cell_formula_units_Z  1
loop_
  _symmetry_equiv_pos_site_id
 _symmetry_equiv_pos_as_xyz
 1  'x, y, z'
loop_
 _atom_site_type_symbol
 _atom_site_label
 _atom_site_symmetry_multiplicity
 _atom_site_fract_x
 _atom_site_fract_y
 _atom_site_fract_z
 _atom_site_fract_occupancy
 Li  Li1  1  0.48055  0.51945  0.51945  1
 O  O1  1  0.12685  0.64963  0.09667  1
 O  O2  1  0.12685  0.09667  0.64963  1
 O  O3  1  0.98555  0.01445  0.01445  1
