CIF file written using JARVIS-Tools package.
data_In7GeIrO8
_symmetry_space_group_name_H-M  'F-43m'
_cell_length_a       7.26435
_cell_length_b       7.26435
_cell_length_c       7.26435
_cell_angle_alpha    60.0001
_cell_angle_beta     60
_cell_angle_gamma    60

_symmetry_Int_Tables_number  216
_chemical_formula_structural  In7GeIrO8
_chemical_formula_sum  In7GeIrO8
_cell_volume  271.06591696681727
_cell_formula_units_Z  1
loop_
  _symmetry_equiv_pos_site_id
 _symmetry_equiv_pos_as_xyz
 1  'x, y, z'
loop_
 _atom_site_type_symbol
 _atom_site_label
 _atom_site_symmetry_multiplicity
 _atom_site_fract_x
 _atom_site_fract_y
 _atom_site_fract_z
 _atom_site_fract_occupancy
 Ge  Ge1  1  0.25000  0.25000  0.25000  1
 In  In1  1  0.74986  0.74986  0.25014  1
 In  In2  1  0.25014  0.25014  0.74986  1
 In  In3  1  0.25014  0.74986  0.25014  1
 In  In4  1  0.74986  0.25014  0.25014  1
 In  In5  1  0.74986  0.25014  0.74986  1
 In  In6  1  0.25014  0.74986  0.74986  1
 In  In7  1  0.75000  0.75000  0.75000  1
 Ir  Ir1  1  0.00000  0.00000  0.00000  1
 O  O1  1  0.94563  0.35146  0.35146  1
 O  O2  1  0.62982  0.62982  0.62982  1
 O  O3  1  0.35146  0.35146  0.94563  1
 O  O4  1  0.11054  0.62982  0.62982  1
 O  O5  1  0.35146  0.35146  0.35146  1
 O  O6  1  0.62982  0.62982  0.11054  1
 O  O7  1  0.35146  0.94563  0.35146  1
 O  O8  1  0.62982  0.11054  0.62982  1
