CIF file written using JARVIS-Tools package.
data_Mn
_symmetry_space_group_name_H-M  'P4_132'
_cell_length_a       6.01125
_cell_length_b       6.01125
_cell_length_c       6.01125
_cell_angle_alpha    90
_cell_angle_beta     90
_cell_angle_gamma    90

_symmetry_Int_Tables_number  213
_chemical_formula_structural  Mn
_chemical_formula_sum  Mn20
_cell_volume  217.21675475150417
_cell_formula_units_Z  20
loop_
  _symmetry_equiv_pos_site_id
 _symmetry_equiv_pos_as_xyz
 1  'x, y, z'
loop_
 _atom_site_type_symbol
 _atom_site_label
 _atom_site_symmetry_multiplicity
 _atom_site_fract_x
 _atom_site_fract_y
 _atom_site_fract_z
 _atom_site_fract_occupancy
 Mn  Mn1  1  0.05250  0.05250  0.05250  1
 Mn  Mn2  1  0.30250  0.19750  0.80250  1
 Mn  Mn3  1  0.80250  0.30250  0.19750  1
 Mn  Mn4  1  0.19750  0.80250  0.30250  1
 Mn  Mn5  1  0.44750  0.94750  0.55250  1
 Mn  Mn6  1  0.55250  0.44750  0.94750  1
 Mn  Mn7  1  0.94750  0.55250  0.44750  1
 Mn  Mn8  1  0.69750  0.69750  0.69750  1
 Mn  Mn9  1  0.12500  0.19704  0.44704  1
 Mn  Mn10  1  0.37500  0.80296  0.94704  1
 Mn  Mn11  1  0.87500  0.69704  0.05296  1
 Mn  Mn12  1  0.19704  0.44704  0.12500  1
 Mn  Mn13  1  0.80296  0.94704  0.37500  1
 Mn  Mn14  1  0.05296  0.87500  0.69704  1
 Mn  Mn15  1  0.44704  0.12500  0.19704  1
 Mn  Mn16  1  0.30296  0.55296  0.62500  1
 Mn  Mn17  1  0.94704  0.37500  0.80296  1
 Mn  Mn18  1  0.55296  0.62500  0.30296  1
 Mn  Mn19  1  0.69704  0.05296  0.87500  1
 Mn  Mn20  1  0.62500  0.30296  0.55296  1
