CIF file written using JARVIS-Tools package.
data_FeCuC5N6O
_symmetry_space_group_name_H-M  'I4mm'
_cell_length_a       7.10785
_cell_length_b       7.10785
_cell_length_c       7.43019
_cell_angle_alpha    118.575
_cell_angle_beta     118.575
_cell_angle_gamma    90

_symmetry_Int_Tables_number  107
_chemical_formula_structural  FeCuC5N6O
_chemical_formula_sum  FeCuC5N6O
_cell_volume  276.4734247432914
_cell_formula_units_Z  1
loop_
  _symmetry_equiv_pos_site_id
 _symmetry_equiv_pos_as_xyz
 1  'x, y, z'
loop_
 _atom_site_type_symbol
 _atom_site_label
 _atom_site_symmetry_multiplicity
 _atom_site_fract_x
 _atom_site_fract_y
 _atom_site_fract_z
 _atom_site_fract_occupancy
 C  C1  1  0.82753  0.82753  0.65505  1
 C  C2  1  0.80245  0.18348  0.98593  1
 C  C3  1  0.80245  0.80245  0.98593  1
 C  C4  1  0.18348  0.18348  0.98593  1
 C  C5  1  0.18348  0.80245  0.98593  1
 Cu  Cu1  1  0.52141  0.52141  0.04281  1
 Fe  Fe1  1  0.00419  0.00419  0.00838  1
 N  N1  1  0.30222  0.68990  0.99212  1
 N  N2  1  0.72111  0.72111  0.44223  1
 N  N3  1  0.68990  0.68990  0.99212  1
 N  N4  1  0.30222  0.30222  0.99212  1
 N  N5  1  0.15537  0.15537  0.31074  1
 N  N6  1  0.68990  0.30222  0.99212  1
 O  O1  1  0.26050  0.26050  0.52100  1
