CIF file written using JARVIS-Tools package.
data_TiNi
_symmetry_space_group_name_H-M  'P2_1/m'
_cell_length_a       2.94672
_cell_length_b       3.98731
_cell_length_c       4.87082
_cell_angle_alpha    90
_cell_angle_beta     105.967
_cell_angle_gamma    90

_symmetry_Int_Tables_number  11
_chemical_formula_structural  TiNi
_chemical_formula_sum  Ti2Ni2
_cell_volume  55.0215674901462
_cell_formula_units_Z  2
loop_
  _symmetry_equiv_pos_site_id
 _symmetry_equiv_pos_as_xyz
 1  'x, y, z'
loop_
 _atom_site_type_symbol
 _atom_site_label
 _atom_site_symmetry_multiplicity
 _atom_site_fract_x
 _atom_site_fract_y
 _atom_site_fract_z
 _atom_site_fract_occupancy
 Ni  Ni1  1  0.08095  0.25000  0.67245  1
 Ni  Ni2  1  0.91905  0.75000  0.32755  1
 Ti  Ti1  1  0.36462  0.25000  0.21445  1
 Ti  Ti2  1  0.63538  0.75000  0.78555  1
