CIF file written using JARVIS-Tools package.
data_Ag2HgO2
_symmetry_space_group_name_H-M  'P4_32_12'
_cell_length_a       6.27047
_cell_length_b       6.27047
_cell_length_c       8.43579
_cell_angle_alpha    90
_cell_angle_beta     90
_cell_angle_gamma    90

_symmetry_Int_Tables_number  96
_chemical_formula_structural  Ag2HgO2
_chemical_formula_sum  Ag8Hg4O8
_cell_volume  331.68487628566487
_cell_formula_units_Z  4
loop_
  _symmetry_equiv_pos_site_id
 _symmetry_equiv_pos_as_xyz
 1  'x, y, z'
loop_
 _atom_site_type_symbol
 _atom_site_label
 _atom_site_symmetry_multiplicity
 _atom_site_fract_x
 _atom_site_fract_y
 _atom_site_fract_z
 _atom_site_fract_occupancy
 Ag  Ag1  1  0.49945  0.74547  0.62840  1
 Ag  Ag2  1  0.99945  0.75453  0.62160  1
 Ag  Ag3  1  0.24547  0.00055  0.87840  1
 Ag  Ag4  1  0.75453  0.99945  0.37840  1
 Ag  Ag5  1  0.25453  0.50055  0.87160  1
 Ag  Ag6  1  0.00055  0.24547  0.12160  1
 Ag  Ag7  1  0.50055  0.25453  0.12840  1
 Ag  Ag8  1  0.74547  0.49945  0.37160  1
 Hg  Hg1  1  0.21036  0.21036  0.50000  1
 Hg  Hg2  1  0.28964  0.71036  0.25000  1
 Hg  Hg3  1  0.71036  0.28964  0.75000  1
 Hg  Hg4  1  0.78964  0.78964  0.00000  1
 O  O1  1  0.24954  0.62315  0.48622  1
 O  O2  1  0.75046  0.37685  0.98622  1
 O  O3  1  0.62315  0.24954  0.51378  1
 O  O4  1  0.12315  0.25046  0.73622  1
 O  O5  1  0.74954  0.87685  0.76378  1
 O  O6  1  0.37685  0.75046  0.01378  1
 O  O7  1  0.87685  0.74954  0.23622  1
 O  O8  1  0.25046  0.12315  0.26378  1
