CIF file written using JARVIS-Tools package.
data_SmC2
_symmetry_space_group_name_H-M  'I4/mmm'
_cell_length_a       3.77052
_cell_length_b       3.77052
_cell_length_c       4.15204
_cell_angle_alpha    117.004
_cell_angle_beta     117.004
_cell_angle_gamma    90

_symmetry_Int_Tables_number  139
_chemical_formula_structural  SmC2
_chemical_formula_sum  SmC2
_cell_volume  45.25107034346794
_cell_formula_units_Z  1
loop_
  _symmetry_equiv_pos_site_id
 _symmetry_equiv_pos_as_xyz
 1  'x, y, z'
loop_
 _atom_site_type_symbol
 _atom_site_label
 _atom_site_symmetry_multiplicity
 _atom_site_fract_x
 _atom_site_fract_y
 _atom_site_fract_z
 _atom_site_fract_occupancy
 C  C1  1  0.60148  0.60148  0.20295  1
 C  C2  1  0.39852  0.39852  0.79705  1
 Sm  Sm1  1  0.00000  0.00000  0.00000  1
