CIF file written using JARVIS-Tools package.
data_LiAg2F4
_symmetry_space_group_name_H-M  'I-4'
_cell_length_a       5.03837
_cell_length_b       6.15924
_cell_length_c       5.03838
_cell_angle_alpha    65.8573
_cell_angle_beta     90
_cell_angle_gamma    114.143

_symmetry_Int_Tables_number  82
_chemical_formula_structural  LiAg2F4
_chemical_formula_sum  LiAg2F4
_cell_volume  127.54296181580162
_cell_formula_units_Z  1
loop_
  _symmetry_equiv_pos_site_id
 _symmetry_equiv_pos_as_xyz
 1  'x, y, z'
loop_
 _atom_site_type_symbol
 _atom_site_label
 _atom_site_symmetry_multiplicity
 _atom_site_fract_x
 _atom_site_fract_y
 _atom_site_fract_z
 _atom_site_fract_occupancy
 Ag  Ag1  1  0.75000  0.50000  0.75000  1
 Ag  Ag2  1  0.50000  0.00000  0.50000  1
 F  F1  1  0.83247  0.18019  0.72212  1
 F  F2  1  0.72212  0.81981  0.34773  1
 F  F3  1  0.34773  0.18019  0.09768  1
 F  F4  1  0.09768  0.81981  0.83247  1
 Li  Li1  1  0.00000  0.00000  0.00000  1
