CIF file written using JARVIS-Tools package.
data_YMoClO4
_symmetry_space_group_name_H-M  'C2/m'
_cell_length_a       6.2807
_cell_length_b       6.2807
_cell_length_c       6.8599
_cell_angle_alpha    75.9274
_cell_angle_beta     75.9275
_cell_angle_gamma    70.5501

_symmetry_Int_Tables_number  12
_chemical_formula_structural  YMoClO4
_chemical_formula_sum  Y2Mo2Cl2O8
_cell_volume  243.5812124682127
_cell_formula_units_Z  2
loop_
  _symmetry_equiv_pos_site_id
 _symmetry_equiv_pos_as_xyz
 1  'x, y, z'
loop_
 _atom_site_type_symbol
 _atom_site_label
 _atom_site_symmetry_multiplicity
 _atom_site_fract_x
 _atom_site_fract_y
 _atom_site_fract_z
 _atom_site_fract_occupancy
 Cl  Cl1  1  0.99022  0.99022  0.76252  1
 Cl  Cl2  1  0.00978  0.00978  0.23748  1
 Mo  Mo1  1  0.36265  0.36265  0.26927  1
 Mo  Mo2  1  0.63735  0.63735  0.73073  1
 O  O1  1  0.88952  0.50925  0.84626  1
 O  O2  1  0.11048  0.49075  0.15374  1
 O  O3  1  0.45770  0.45770  0.79870  1
 O  O4  1  0.29480  0.29480  0.53528  1
 O  O5  1  0.54230  0.54230  0.20130  1
 O  O6  1  0.70520  0.70520  0.46472  1
 O  O7  1  0.49075  0.11048  0.15374  1
 O  O8  1  0.50925  0.88952  0.84626  1
 Y  Y1  1  0.77835  0.77835  0.11026  1
 Y  Y2  1  0.22165  0.22165  0.88974  1
