CIF file written using JARVIS-Tools package.
data_CrTe4Au
_symmetry_space_group_name_H-M  'P2/m'
_cell_length_a       5.52629
_cell_length_b       4.06353
_cell_length_c       7.44476
_cell_angle_alpha    90
_cell_angle_beta     90.6155
_cell_angle_gamma    90

_symmetry_Int_Tables_number  10
_chemical_formula_structural  CrTe4Au
_chemical_formula_sum  CrTe4Au
_cell_volume  167.1716362837911
_cell_formula_units_Z  1
loop_
  _symmetry_equiv_pos_site_id
 _symmetry_equiv_pos_as_xyz
 1  'x, y, z'
loop_
 _atom_site_type_symbol
 _atom_site_label
 _atom_site_symmetry_multiplicity
 _atom_site_fract_x
 _atom_site_fract_y
 _atom_site_fract_z
 _atom_site_fract_occupancy
 Au  Au1  1  0.00000  0.00000  0.00000  1
 Cr  Cr1  1  0.00000  0.50000  0.50000  1
 Te  Te1  1  0.23045  0.50000  0.82661  1
 Te  Te2  1  0.29267  0.00000  0.37728  1
 Te  Te3  1  0.76955  0.50000  0.17339  1
 Te  Te4  1  0.70733  0.00000  0.62272  1
