CIF file written using JARVIS-Tools package.
data_Nb2Tl5S4Br9
_symmetry_space_group_name_H-M  'Immm'
_cell_length_a       7.19493
_cell_length_b       10.1492
_cell_length_c       10.1633
_cell_angle_alpha    119.954
_cell_angle_beta     110.727
_cell_angle_gamma    89.9999

_symmetry_Int_Tables_number  71
_chemical_formula_structural  Nb2Tl5S4Br9
_chemical_formula_sum  Nb2Tl5S4Br9
_cell_volume  586.9277240663829
_cell_formula_units_Z  1
loop_
  _symmetry_equiv_pos_site_id
 _symmetry_equiv_pos_as_xyz
 1  'x, y, z'
loop_
 _atom_site_type_symbol
 _atom_site_label
 _atom_site_symmetry_multiplicity
 _atom_site_fract_x
 _atom_site_fract_y
 _atom_site_fract_z
 _atom_site_fract_occupancy
 Br  Br1  1  0.63535  0.86950  0.27074  1
 Br  Br2  1  0.96613  0.21538  0.43075  1
 Br  Br3  1  0.03387  0.78462  0.56925  1
 Br  Br4  1  0.63535  0.40124  0.27074  1
 Br  Br5  1  0.36465  0.13050  0.72926  1
 Br  Br6  1  0.46458  0.21537  0.43074  1
 Br  Br7  1  0.53542  0.78463  0.56926  1
 Br  Br8  1  -0.00000  0.50000  0.00000  1
 Br  Br9  1  0.36465  0.59876  0.72926  1
 Nb  Nb1  1  0.40941  0.90939  0.81879  1
 Nb  Nb2  1  0.59059  0.09061  0.18121  1
 S  S1  1  0.24982  0.90010  0.99999  1
 S  S2  1  0.75018  0.90010  0.00001  1
 S  S3  1  0.24982  0.09990  0.99999  1
 S  S4  1  0.75018  0.09990  0.00001  1
 Tl  Tl1  1  0.16326  0.44614  0.32653  1
 Tl  Tl2  1  0.83674  0.11961  0.67347  1
 Tl  Tl3  1  0.83674  0.55386  0.67347  1
 Tl  Tl4  1  0.50000  0.50000  0.00000  1
 Tl  Tl5  1  0.16326  0.88039  0.32653  1
