CIF file written using JARVIS-Tools package.
data_U2AuF11
_symmetry_space_group_name_H-M  'I4/mcm'
_cell_length_a       6.31852
_cell_length_b       8.5235
_cell_length_c       8.52351
_cell_angle_alpha    82.1035
_cell_angle_beta     68.2441
_cell_angle_gamma    68.2442

_symmetry_Int_Tables_number  140
_chemical_formula_structural  U2AuF11
_chemical_formula_sum  U4Au2F22
_cell_volume  395.9761837274995
_cell_formula_units_Z  2
loop_
  _symmetry_equiv_pos_site_id
 _symmetry_equiv_pos_as_xyz
 1  'x, y, z'
loop_
 _atom_site_type_symbol
 _atom_site_label
 _atom_site_symmetry_multiplicity
 _atom_site_fract_x
 _atom_site_fract_y
 _atom_site_fract_z
 _atom_site_fract_occupancy
 Au  Au1  1  0.50000  0.00000  -0.00000  1
 Au  Au2  1  0.00000  0.00000  0.00000  1
 F  F1  1  0.75000  0.32042  0.67958  1
 F  F2  1  0.92958  0.32042  0.32042  1
 F  F3  1  0.66674  0.73496  0.93156  1
 F  F4  1  0.33326  0.26504  0.06844  1
 F  F5  1  0.00000  0.50000  0.50000  1
 F  F6  1  0.57042  0.67958  0.67958  1
 F  F7  1  0.40170  0.93156  0.26504  1
 F  F8  1  0.90170  0.26504  0.93156  1
 F  F9  1  0.50000  0.50000  0.50000  1
 F  F10  1  0.09830  0.73496  0.06844  1
 F  F11  1  0.07042  0.67958  0.67958  1
 F  F12  1  0.75000  0.67958  0.32042  1
 F  F13  1  0.50000  0.00000  0.50000  1
 F  F14  1  0.83326  0.06844  0.26504  1
 F  F15  1  0.50000  0.50000  0.00000  1
 F  F16  1  0.00000  0.50000  -0.00000  1
 F  F17  1  0.25000  0.32042  0.67958  1
 F  F18  1  0.16674  0.93156  0.73496  1
 F  F19  1  0.00000  0.00000  0.50000  1
 F  F20  1  0.25000  0.67958  0.32042  1
 F  F21  1  0.59830  0.06844  0.73496  1
 F  F22  1  0.42958  0.32042  0.32042  1
 U  U1  1  0.35509  0.78982  0.50000  1
 U  U2  1  0.14491  0.50000  0.21018  1
 U  U3  1  0.85509  0.50000  0.78982  1
 U  U4  1  0.64491  0.21018  0.50000  1
