CIF file written using JARVIS-Tools package.
data_TaSi2
_symmetry_space_group_name_H-M  'P6_222'
_cell_length_a       4.8371
_cell_length_b       4.8371
_cell_length_c       6.62605
_cell_angle_alpha    90
_cell_angle_beta     90
_cell_angle_gamma    120

_symmetry_Int_Tables_number  180
_chemical_formula_structural  TaSi2
_chemical_formula_sum  Ta3Si6
_cell_volume  134.26271639298156
_cell_formula_units_Z  3
loop_
  _symmetry_equiv_pos_site_id
 _symmetry_equiv_pos_as_xyz
 1  'x, y, z'
loop_
 _atom_site_type_symbol
 _atom_site_label
 _atom_site_symmetry_multiplicity
 _atom_site_fract_x
 _atom_site_fract_y
 _atom_site_fract_z
 _atom_site_fract_occupancy
 Si  Si1  1  0.84054  0.68108  0.50000  1
 Si  Si2  1  0.15946  0.84054  0.83333  1
 Si  Si3  1  0.68108  0.84054  0.16667  1
 Si  Si4  1  0.15946  0.31892  0.50000  1
 Si  Si5  1  0.84054  0.15946  0.83333  1
 Si  Si6  1  0.31892  0.15946  0.16667  1
 Ta  Ta1  1  0.00000  0.50000  0.16667  1
 Ta  Ta2  1  0.50000  0.50000  0.83333  1
 Ta  Ta3  1  0.50000  0.00000  0.50000  1
