CIF file written using JARVIS-Tools package.
data_VO2
_symmetry_space_group_name_H-M  'P2/m'
_cell_length_a       4.85675
_cell_length_b       6.65295
_cell_length_c       7.98253
_cell_angle_alpha    90
_cell_angle_beta     99.2902
_cell_angle_gamma    90

_symmetry_Int_Tables_number  10
_chemical_formula_structural  VO2
_chemical_formula_sum  V4O8
_cell_volume  254.54633358927447
_cell_formula_units_Z  4
loop_
  _symmetry_equiv_pos_site_id
 _symmetry_equiv_pos_as_xyz
 1  'x, y, z'
loop_
 _atom_site_type_symbol
 _atom_site_label
 _atom_site_symmetry_multiplicity
 _atom_site_fract_x
 _atom_site_fract_y
 _atom_site_fract_z
 _atom_site_fract_occupancy
 O  O1  1  0.26809  0.00000  0.14198  1
 O  O2  1  0.73191  0.00000  0.85802  1
 O  O3  1  0.22676  0.75681  0.85369  1
 O  O4  1  0.77324  0.75681  0.14631  1
 O  O5  1  0.77324  0.24319  0.14631  1
 O  O6  1  0.22676  0.24319  0.85369  1
 O  O7  1  0.26984  0.00000  0.57836  1
 O  O8  1  0.73016  0.00000  0.42164  1
 V  V1  1  0.65427  0.00000  0.21899  1
 V  V2  1  0.34573  0.00000  0.78101  1
 V  V3  1  0.00000  0.16517  0.00000  1
 V  V4  1  0.00000  0.83483  0.00000  1
