CIF file written using JARVIS-Tools package.
data_Ho2CdS4
_symmetry_space_group_name_H-M  'Fd-3m'
_cell_length_a       7.92852
_cell_length_b       7.92851
_cell_length_c       7.92851
_cell_angle_alpha    60
_cell_angle_beta     60
_cell_angle_gamma    59.9999

_symmetry_Int_Tables_number  227
_chemical_formula_structural  Ho2CdS4
_chemical_formula_sum  Ho4Cd2S8
_cell_volume  352.4199734055797
_cell_formula_units_Z  2
loop_
  _symmetry_equiv_pos_site_id
 _symmetry_equiv_pos_as_xyz
 1  'x, y, z'
loop_
 _atom_site_type_symbol
 _atom_site_label
 _atom_site_symmetry_multiplicity
 _atom_site_fract_x
 _atom_site_fract_y
 _atom_site_fract_z
 _atom_site_fract_occupancy
 Cd  Cd1  1  0.12500  0.12500  0.12500  1
 Cd  Cd2  1  0.87500  0.87500  0.87500  1
 Ho  Ho1  1  0.50000  0.50000  0.00000  1
 Ho  Ho2  1  0.50000  0.50000  0.50000  1
 Ho  Ho3  1  -0.00000  0.50000  0.50000  1
 Ho  Ho4  1  0.50000  0.00000  0.50000  1
 S  S1  1  0.74255  0.74255  0.74255  1
 S  S2  1  0.25745  0.25745  0.72765  1
 S  S3  1  0.25745  0.72765  0.25745  1
 S  S4  1  0.72765  0.25745  0.25745  1
 S  S5  1  0.74255  0.27235  0.74255  1
 S  S6  1  0.27235  0.74255  0.74255  1
 S  S7  1  0.25745  0.25745  0.25745  1
 S  S8  1  0.74255  0.74255  0.27235  1
