CIF file written using JARVIS-Tools package.
data_NaTlO
_symmetry_space_group_name_H-M  'Pm'
_cell_length_a       6.10869
_cell_length_b       3.58633
_cell_length_c       12.0275
_cell_angle_alpha    90
_cell_angle_beta     69.4924
_cell_angle_gamma    90

_symmetry_Int_Tables_number  6
_chemical_formula_structural  NaTlO
_chemical_formula_sum  Na4Tl4O4
_cell_volume  246.7971314005551
_cell_formula_units_Z  4
loop_
  _symmetry_equiv_pos_site_id
 _symmetry_equiv_pos_as_xyz
 1  'x, y, z'
loop_
 _atom_site_type_symbol
 _atom_site_label
 _atom_site_symmetry_multiplicity
 _atom_site_fract_x
 _atom_site_fract_y
 _atom_site_fract_z
 _atom_site_fract_occupancy
 Na  Na1  1  0.36861  0.00000  0.39873  1
 Na  Na2  1  0.27481  0.00000  0.10321  1
 Na  Na3  1  0.26441  0.50000  0.91130  1
 Na  Na4  1  0.80855  0.50000  0.09828  1
 O  O1  1  0.02060  0.00000  0.00127  1
 O  O2  1  0.96651  0.00000  0.48883  1
 O  O3  1  0.51283  0.50000  0.02747  1
 O  O4  1  0.50862  0.50000  0.47117  1
 Tl  Tl1  1  0.55018  0.00000  0.61788  1
 Tl  Tl2  1  0.75959  0.00000  0.89700  1
 Tl  Tl3  1  0.05470  0.50000  0.62773  1
 Tl  Tl4  1  0.91068  0.50000  0.35711  1
