CIF file written using JARVIS-Tools package.
data_PbBrCl
_symmetry_space_group_name_H-M  'Pnma'
_cell_length_a       4.60254
_cell_length_b       7.80956
_cell_length_c       9.25
_cell_angle_alpha    90
_cell_angle_beta     90
_cell_angle_gamma    90

_symmetry_Int_Tables_number  62
_chemical_formula_structural  PbBrCl
_chemical_formula_sum  Pb4Br4Cl4
_cell_volume  332.4807095088966
_cell_formula_units_Z  4
loop_
  _symmetry_equiv_pos_site_id
 _symmetry_equiv_pos_as_xyz
 1  'x, y, z'
loop_
 _atom_site_type_symbol
 _atom_site_label
 _atom_site_symmetry_multiplicity
 _atom_site_fract_x
 _atom_site_fract_y
 _atom_site_fract_z
 _atom_site_fract_occupancy
 Br  Br1  1  0.75000  0.97297  0.66816  1
 Br  Br2  1  0.25000  0.52703  0.16816  1
 Br  Br3  1  0.75000  0.47297  0.83184  1
 Br  Br4  1  0.25000  0.02703  0.33184  1
 Cl  Cl1  1  0.75000  0.85839  0.06958  1
 Cl  Cl2  1  0.25000  0.64161  0.56958  1
 Cl  Cl3  1  0.75000  0.35839  0.43042  1
 Cl  Cl4  1  0.25000  0.14161  0.93042  1
 Pb  Pb1  1  0.25000  0.25174  0.60408  1
 Pb  Pb2  1  0.75000  0.74826  0.39592  1
 Pb  Pb3  1  0.25000  0.75174  0.89592  1
 Pb  Pb4  1  0.75000  0.24826  0.10408  1
