CIF file written using JARVIS-Tools package.
data_NbNi3
_symmetry_space_group_name_H-M  'Pmmn'
_cell_length_a       4.26459
_cell_length_b       4.56373
_cell_length_c       5.12561
_cell_angle_alpha    90
_cell_angle_beta     90
_cell_angle_gamma    90

_symmetry_Int_Tables_number  59
_chemical_formula_structural  NbNi3
_chemical_formula_sum  Nb2Ni6
_cell_volume  99.75666051090367
_cell_formula_units_Z  2
loop_
  _symmetry_equiv_pos_site_id
 _symmetry_equiv_pos_as_xyz
 1  'x, y, z'
loop_
 _atom_site_type_symbol
 _atom_site_label
 _atom_site_symmetry_multiplicity
 _atom_site_fract_x
 _atom_site_fract_y
 _atom_site_fract_z
 _atom_site_fract_occupancy
 Nb  Nb1  1  0.00000  0.65147  0.50000  1
 Nb  Nb2  1  0.50000  0.34853  0.00000  1
 Ni  Ni1  1  0.00000  0.68243  0.00000  1
 Ni  Ni2  1  0.50000  0.31757  0.50000  1
 Ni  Ni3  1  0.50000  0.84079  0.24964  1
 Ni  Ni4  1  0.00000  0.15921  0.25036  1
 Ni  Ni5  1  0.00000  0.15921  0.74964  1
 Ni  Ni6  1  0.50000  0.84079  0.75036  1
