CIF file written using JARVIS-Tools package.
data_LuBiO3
_symmetry_space_group_name_H-M  'R-3'
_cell_length_a       5.89993
_cell_length_b       5.90005
_cell_length_c       6.02533
_cell_angle_alpha    60.6812
_cell_angle_beta     60.6877
_cell_angle_gamma    60.0011

_symmetry_Int_Tables_number  148
_chemical_formula_structural  LuBiO3
_chemical_formula_sum  Lu2Bi2O6
_cell_volume  149.82629015616052
_cell_formula_units_Z  2
loop_
  _symmetry_equiv_pos_site_id
 _symmetry_equiv_pos_as_xyz
 1  'x, y, z'
loop_
 _atom_site_type_symbol
 _atom_site_label
 _atom_site_symmetry_multiplicity
 _atom_site_fract_x
 _atom_site_fract_y
 _atom_site_fract_z
 _atom_site_fract_occupancy
 Bi  Bi1  1  0.36151  0.36151  0.91548  1
 Bi  Bi2  1  0.63849  0.63849  0.08452  1
 Lu  Lu1  1  0.14400  0.14401  0.56797  1
 Lu  Lu2  1  0.85600  0.85599  0.43203  1
 O  O1  1  0.78849  0.01060  0.74830  1
 O  O2  1  0.01062  0.45260  0.74829  1
 O  O3  1  0.45261  0.78849  0.74829  1
 O  O4  1  0.54739  0.21151  0.25171  1
 O  O5  1  0.98938  0.54740  0.25171  1
 O  O6  1  0.21151  0.98940  0.25170  1
