CIF file written using JARVIS-Tools package.
data_NaAg3O2
_symmetry_space_group_name_H-M  'Ibam'
_cell_length_a       6.0007
_cell_length_b       6.15065
_cell_length_c       6.7775
_cell_angle_alpha    116.985
_cell_angle_beta     116.276
_cell_angle_gamma    90

_symmetry_Int_Tables_number  72
_chemical_formula_structural  NaAg3O2
_chemical_formula_sum  Na2Ag6O4
_cell_volume  193.45941273944723
_cell_formula_units_Z  2
loop_
  _symmetry_equiv_pos_site_id
 _symmetry_equiv_pos_as_xyz
 1  'x, y, z'
loop_
 _atom_site_type_symbol
 _atom_site_label
 _atom_site_symmetry_multiplicity
 _atom_site_fract_x
 _atom_site_fract_y
 _atom_site_fract_z
 _atom_site_fract_occupancy
 Ag  Ag1  1  -0.00000  0.50000  0.50000  1
 Ag  Ag2  1  0.50000  -0.00000  0.50000  1
 Ag  Ag3  1  0.50000  0.50000  0.50000  1
 Ag  Ag4  1  0.50000  -0.00000  0.00000  1
 Ag  Ag5  1  0.00000  0.00000  0.00000  1
 Ag  Ag6  1  0.00000  0.00000  0.50000  1
 Na  Na1  1  0.75000  0.50000  -0.00000  1
 Na  Na2  1  0.25000  0.50000  0.00000  1
 O  O1  1  0.61065  0.82249  0.22129  1
 O  O2  1  0.11065  0.39880  0.22129  1
 O  O3  1  0.88935  0.60120  0.77871  1
 O  O4  1  0.38935  0.17751  0.77871  1
