CIF file written using JARVIS-Tools package.
data_Pr2In
_symmetry_space_group_name_H-M  'P6_3/mmc'
_cell_length_a       5.57706
_cell_length_b       5.57706
_cell_length_c       6.9603
_cell_angle_alpha    90
_cell_angle_beta     90
_cell_angle_gamma    120

_symmetry_Int_Tables_number  194
_chemical_formula_structural  Pr2In
_chemical_formula_sum  Pr4In2
_cell_volume  187.48684570809172
_cell_formula_units_Z  2
loop_
  _symmetry_equiv_pos_site_id
 _symmetry_equiv_pos_as_xyz
 1  'x, y, z'
loop_
 _atom_site_type_symbol
 _atom_site_label
 _atom_site_symmetry_multiplicity
 _atom_site_fract_x
 _atom_site_fract_y
 _atom_site_fract_z
 _atom_site_fract_occupancy
 In  In1  1  0.66667  0.33333  0.25000  1
 In  In2  1  0.33333  0.66667  0.75000  1
 Pr  Pr1  1  0.00000  0.00000  0.50000  1
 Pr  Pr2  1  0.00000  0.00000  0.00000  1
 Pr  Pr3  1  0.33333  0.66667  0.25000  1
 Pr  Pr4  1  0.66667  0.33333  0.75000  1
