CIF file written using JARVIS-Tools package.
data_RhO2F6
_symmetry_space_group_name_H-M  'P-1'
_cell_length_a       4.99117
_cell_length_b       5.0952
_cell_length_c       5.16904
_cell_angle_alpha    92.1312
_cell_angle_beta     102.821
_cell_angle_gamma    100.633

_symmetry_Int_Tables_number  2
_chemical_formula_structural  RhO2F6
_chemical_formula_sum  RhO2F6
_cell_volume  125.5558099995352
_cell_formula_units_Z  1
loop_
  _symmetry_equiv_pos_site_id
 _symmetry_equiv_pos_as_xyz
 1  'x, y, z'
loop_
 _atom_site_type_symbol
 _atom_site_label
 _atom_site_symmetry_multiplicity
 _atom_site_fract_x
 _atom_site_fract_y
 _atom_site_fract_z
 _atom_site_fract_occupancy
 F  F1  1  0.80533  0.67083  0.07266  1
 F  F2  1  0.66454  0.06982  0.79639  1
 F  F3  1  0.33546  0.93018  0.20361  1
 F  F4  1  0.06229  0.83267  0.69749  1
 F  F5  1  0.93771  0.16733  0.30251  1
 F  F6  1  0.19467  0.32917  0.92734  1
 O  O1  1  0.40962  0.54695  0.53104  1
 O  O2  1  0.59038  0.45305  0.46896  1
 Rh  Rh1  1  0.00000  0.00000  0.00000  1
