CIF file written using JARVIS-Tools package.
data_PuGa
_symmetry_space_group_name_H-M  'I4/mmm'
_cell_length_a       5.99951
_cell_length_b       5.99951
_cell_length_c       5.99951
_cell_angle_alpha    102.003
_cell_angle_beta     113.329
_cell_angle_gamma    113.329

_symmetry_Int_Tables_number  139
_chemical_formula_structural  PuGa
_chemical_formula_sum  Pu4Ga4
_cell_volume  164.15646228616183
_cell_formula_units_Z  4
loop_
  _symmetry_equiv_pos_site_id
 _symmetry_equiv_pos_as_xyz
 1  'x, y, z'
loop_
 _atom_site_type_symbol
 _atom_site_label
 _atom_site_symmetry_multiplicity
 _atom_site_fract_x
 _atom_site_fract_y
 _atom_site_fract_z
 _atom_site_fract_occupancy
 Ga  Ga1  1  0.00000  0.69878  0.30122  1
 Ga  Ga2  1  0.60245  0.30122  0.30122  1
 Ga  Ga3  1  -0.00000  0.30122  0.69878  1
 Ga  Ga4  1  0.39755  0.69878  0.69878  1
 Pu  Pu1  1  -0.00000  0.14974  0.14974  1
 Pu  Pu2  1  0.00000  0.85026  0.85026  1
 Pu  Pu3  1  0.50000  0.25000  0.75000  1
 Pu  Pu4  1  0.50000  0.75000  0.25000  1
