CIF file written using JARVIS-Tools package.
data_SmMgTl
_symmetry_space_group_name_H-M  'P-62m'
_cell_length_a       7.63398
_cell_length_b       7.63398
_cell_length_c       4.68536
_cell_angle_alpha    90
_cell_angle_beta     90
_cell_angle_gamma    120

_symmetry_Int_Tables_number  189
_chemical_formula_structural  SmMgTl
_chemical_formula_sum  Sm3Mg3Tl3
_cell_volume  236.4697094443396
_cell_formula_units_Z  3
loop_
  _symmetry_equiv_pos_site_id
 _symmetry_equiv_pos_as_xyz
 1  'x, y, z'
loop_
 _atom_site_type_symbol
 _atom_site_label
 _atom_site_symmetry_multiplicity
 _atom_site_fract_x
 _atom_site_fract_y
 _atom_site_fract_z
 _atom_site_fract_occupancy
 Mg  Mg1  1  0.75631  -0.00000  0.50000  1
 Mg  Mg2  1  0.24369  0.24369  0.50000  1
 Mg  Mg3  1  -0.00000  0.75631  0.50000  1
 Sm  Sm1  1  0.57354  0.57354  0.00000  1
 Sm  Sm2  1  -0.00000  0.42646  0.00000  1
 Sm  Sm3  1  0.42646  -0.00000  0.00000  1
 Tl  Tl1  1  0.66667  0.33333  0.50000  1
 Tl  Tl2  1  0.00000  0.00000  0.00000  1
 Tl  Tl3  1  0.33333  0.66667  0.50000  1
