CIF file written using JARVIS-Tools package.
data_HoC2
_symmetry_space_group_name_H-M  'I4/mmm'
_cell_length_a       3.63997
_cell_length_b       3.63997
_cell_length_c       4.01778
_cell_angle_alpha    116.935
_cell_angle_beta     116.935
_cell_angle_gamma    90

_symmetry_Int_Tables_number  139
_chemical_formula_structural  HoC2
_chemical_formula_sum  HoC2
_cell_volume  40.87561098382412
_cell_formula_units_Z  1
loop_
  _symmetry_equiv_pos_site_id
 _symmetry_equiv_pos_as_xyz
 1  'x, y, z'
loop_
 _atom_site_type_symbol
 _atom_site_label
 _atom_site_symmetry_multiplicity
 _atom_site_fract_x
 _atom_site_fract_y
 _atom_site_fract_z
 _atom_site_fract_occupancy
 C  C1  1  0.60502  0.60502  0.21005  1
 C  C2  1  0.39498  0.39498  0.78995  1
 Ho  Ho1  1  0.00000  0.00000  0.00000  1
