CIF file written using JARVIS-Tools package.
data_RbClO3
_symmetry_space_group_name_H-M  'R3m'
_cell_length_a       4.40427
_cell_length_b       4.40426
_cell_length_c       4.40427
_cell_angle_alpha    86.8721
_cell_angle_beta     86.8721
_cell_angle_gamma    86.8722

_symmetry_Int_Tables_number  160
_chemical_formula_structural  RbClO3
_chemical_formula_sum  RbClO3
_cell_volume  85.06346607388706
_cell_formula_units_Z  1
loop_
  _symmetry_equiv_pos_site_id
 _symmetry_equiv_pos_as_xyz
 1  'x, y, z'
loop_
 _atom_site_type_symbol
 _atom_site_label
 _atom_site_symmetry_multiplicity
 _atom_site_fract_x
 _atom_site_fract_y
 _atom_site_fract_z
 _atom_site_fract_occupancy
 Cl  Cl1  1  0.51163  0.51163  0.51163  1
 O  O1  1  0.17413  0.57233  0.57233  1
 O  O2  1  0.57233  0.57233  0.17413  1
 O  O3  1  0.57233  0.17413  0.57233  1
 Rb  Rb1  1  0.04557  0.04557  0.04557  1
