CIF file written using JARVIS-Tools package.
data_SbIrS
_symmetry_space_group_name_H-M  'P2_13'
_cell_length_a       6.11937
_cell_length_b       6.11937
_cell_length_c       6.11937
_cell_angle_alpha    90
_cell_angle_beta     90
_cell_angle_gamma    90

_symmetry_Int_Tables_number  198
_chemical_formula_structural  SbIrS
_chemical_formula_sum  Sb4Ir4S4
_cell_volume  229.15062843050308
_cell_formula_units_Z  4
loop_
  _symmetry_equiv_pos_site_id
 _symmetry_equiv_pos_as_xyz
 1  'x, y, z'
loop_
 _atom_site_type_symbol
 _atom_site_label
 _atom_site_symmetry_multiplicity
 _atom_site_fract_x
 _atom_site_fract_y
 _atom_site_fract_z
 _atom_site_fract_occupancy
 Ir  Ir1  1  0.98747  0.51253  0.48747  1
 Ir  Ir2  1  0.51253  0.48747  0.98747  1
 Ir  Ir3  1  0.48747  0.98747  0.51253  1
 Ir  Ir4  1  0.01253  0.01253  0.01253  1
 S  S1  1  0.38331  0.11669  0.88331  1
 S  S2  1  0.11669  0.88331  0.38331  1
 S  S3  1  0.88331  0.38331  0.11669  1
 S  S4  1  0.61669  0.61669  0.61669  1
 Sb  Sb1  1  0.37670  0.37670  0.37670  1
 Sb  Sb2  1  0.12330  0.62330  0.87670  1
 Sb  Sb3  1  0.87670  0.12330  0.62330  1
 Sb  Sb4  1  0.62330  0.87670  0.12330  1
