CIF file written using JARVIS-Tools package.
data_H6PbCBr3N
_symmetry_space_group_name_H-M  'Pm'
_cell_length_a       5.96038
_cell_length_b       5.90296
_cell_length_c       6.0215
_cell_angle_alpha    90.0052
_cell_angle_beta     87.8053
_cell_angle_gamma    89.9964

_symmetry_Int_Tables_number  6
_chemical_formula_structural  H6PbCBr3N
_chemical_formula_sum  H6PbCBr3N
_cell_volume  211.7043846897087
_cell_formula_units_Z  1
loop_
  _symmetry_equiv_pos_site_id
 _symmetry_equiv_pos_as_xyz
 1  'x, y, z'
loop_
 _atom_site_type_symbol
 _atom_site_label
 _atom_site_symmetry_multiplicity
 _atom_site_fract_x
 _atom_site_fract_y
 _atom_site_fract_z
 _atom_site_fract_occupancy
 Br  Br1  1  0.43520  0.49994  0.98690  1
 Br  Br2  1  0.44258  -0.00005  0.52699  1
 Br  Br3  1  0.96964  0.49993  0.44180  1
 C  C1  1  0.90764  -0.00005  0.94802  1
 H  H1  1  0.94321  0.99991  0.76807  1
 H  H2  1  0.81353  0.15276  -0.00280  1
 H  H3  1  0.81351  0.84718  -0.00277  1
 H  H4  1  0.22146  0.14293  0.02090  1
 H  H5  1  0.22144  0.85691  0.02090  1
 H  H6  1  0.10430  0.99996  0.23423  1
 N  N1  1  0.12595  0.99994  0.06266  1
 Pb  Pb1  1  0.47953  0.49995  0.49089  1
