CIF file written using JARVIS-Tools package.
data_TbFe2B2
_symmetry_space_group_name_H-M  'I4/mmm'
_cell_length_a       3.6204
_cell_length_b       3.6204
_cell_length_c       5.35111
_cell_angle_alpha    109.772
_cell_angle_beta     109.772
_cell_angle_gamma    90

_symmetry_Int_Tables_number  139
_chemical_formula_structural  TbFe2B2
_chemical_formula_sum  TbFe2B2
_cell_volume  61.59144856771532
_cell_formula_units_Z  1
loop_
  _symmetry_equiv_pos_site_id
 _symmetry_equiv_pos_as_xyz
 1  'x, y, z'
loop_
 _atom_site_type_symbol
 _atom_site_label
 _atom_site_symmetry_multiplicity
 _atom_site_fract_x
 _atom_site_fract_y
 _atom_site_fract_z
 _atom_site_fract_occupancy
 B  B1  1  0.66075  0.66075  0.32151  1
 B  B2  1  0.33925  0.33925  0.67849  1
 Fe  Fe1  1  0.25000  0.75000  0.50000  1
 Fe  Fe2  1  0.75000  0.25000  0.50000  1
 Tb  Tb1  1  0.00000  0.00000  0.00000  1
