CIF file written using JARVIS-Tools package.
data_K3VCO8
_symmetry_space_group_name_H-M  'Cm'
_cell_length_a       5.59272
_cell_length_b       6.40344
_cell_length_c       6.40343
_cell_angle_alpha    92.151
_cell_angle_beta     111.916
_cell_angle_gamma    111.916

_symmetry_Int_Tables_number  8
_chemical_formula_structural  K3VCO8
_chemical_formula_sum  K3VCO8
_cell_volume  193.1642278167217
_cell_formula_units_Z  1
loop_
  _symmetry_equiv_pos_site_id
 _symmetry_equiv_pos_as_xyz
 1  'x, y, z'
loop_
 _atom_site_type_symbol
 _atom_site_label
 _atom_site_symmetry_multiplicity
 _atom_site_fract_x
 _atom_site_fract_y
 _atom_site_fract_z
 _atom_site_fract_occupancy
 C  C1  1  0.35221  0.34112  0.34112  1
 K  K1  1  0.09211  0.59867  0.59867  1
 K  K2  1  0.63829  0.34969  0.91517  1
 K  K3  1  0.63829  0.91517  0.34969  1
 O  O1  1  0.07040  0.25182  0.25182  1
 O  O2  1  0.65023  0.89444  0.89444  1
 O  O3  1  0.09278  0.02790  0.74447  1
 O  O4  1  0.06280  0.81442  0.23467  1
 O  O5  1  0.06280  0.23467  0.81442  1
 O  O6  1  0.50216  0.51003  0.51003  1
 O  O7  1  0.45548  0.24080  0.24080  1
 O  O8  1  0.09278  0.74447  0.02790  1
 V  V1  1  0.00016  0.00040  0.00040  1
