CIF file written using JARVIS-Tools package.
data_Zr3GeO8
_symmetry_space_group_name_H-M  'I-42m'
_cell_length_a       5.05022
_cell_length_b       5.05022
_cell_length_c       6.36846
_cell_angle_alpha    113.366
_cell_angle_beta     113.367
_cell_angle_gamma    90.0001

_symmetry_Int_Tables_number  121
_chemical_formula_structural  Zr3GeO8
_chemical_formula_sum  Zr3GeO8
_cell_volume  134.47083894029572
_cell_formula_units_Z  1
loop_
  _symmetry_equiv_pos_site_id
 _symmetry_equiv_pos_as_xyz
 1  'x, y, z'
loop_
 _atom_site_type_symbol
 _atom_site_label
 _atom_site_symmetry_multiplicity
 _atom_site_fract_x
 _atom_site_fract_y
 _atom_site_fract_z
 _atom_site_fract_occupancy
 Ge  Ge1  1  -0.00001  -0.00001  -0.00000  1
 O  O1  1  0.53717  0.53717  0.68113  1
 O  O2  1  0.85611  0.46280  0.31885  1
 O  O3  1  0.46280  0.85610  0.31885  1
 O  O4  1  0.14388  0.14388  0.68117  1
 O  O5  1  0.30433  0.30433  0.17930  1
 O  O6  1  0.12495  0.69563  0.82069  1
 O  O7  1  0.69563  0.12495  0.82069  1
 O  O8  1  0.87502  0.87502  0.17932  1
 Zr  Zr1  1  0.50000  0.50000  0.00000  1
 Zr  Zr2  1  0.25008  0.75005  0.50000  1
 Zr  Zr3  1  0.75005  0.25008  0.50000  1
