CIF file written using JARVIS-Tools package.
data_Te4Mo3S2
_symmetry_space_group_name_H-M  'Cm'
_cell_length_a       3.44342
_cell_length_b       9.02623
_cell_length_c       14.4553
_cell_angle_alpha    77.3951
_cell_angle_beta     83.1589
_cell_angle_gamma    79.0023

_symmetry_Int_Tables_number  8
_chemical_formula_structural  Te4Mo3S2
_chemical_formula_sum  Te8Mo6S4
_cell_volume  428.99544294256157
_cell_formula_units_Z  2
loop_
  _symmetry_equiv_pos_site_id
 _symmetry_equiv_pos_as_xyz
 1  'x, y, z'
loop_
 _atom_site_type_symbol
 _atom_site_label
 _atom_site_symmetry_multiplicity
 _atom_site_fract_x
 _atom_site_fract_y
 _atom_site_fract_z
 _atom_site_fract_occupancy
 Mo  Mo1  1  0.86988  0.51100  0.74919  1
 Mo  Mo2  1  0.45814  0.82876  0.25503  1
 Mo  Mo3  1  0.54329  0.16435  0.74899  1
 Mo  Mo4  1  0.13631  0.48215  0.24532  1
 Mo  Mo5  1  0.19593  0.85893  0.74912  1
 Mo  Mo6  1  0.79627  0.15526  0.25226  1
 S  S1  1  0.65192  0.34610  0.35015  1
 S  S2  1  0.38567  0.07793  0.15080  1
 S  S3  1  0.68482  0.98984  0.64044  1
 S  S4  1  0.61131  0.91931  0.85797  1
 Te  Te1  1  0.73834  0.41231  0.11111  1
 Te  Te2  1  0.98041  0.65750  0.38175  1
 Te  Te3  1  0.26565  0.58951  0.87910  1
 Te  Te4  1  0.35366  0.67356  0.61904  1
 Te  Te5  1  0.05832  0.76287  0.12059  1
 Te  Te6  1  0.94069  0.23740  0.88114  1
 Te  Te7  1  0.02962  0.32383  0.61686  1
 Te  Te8  1  0.29976  0.00940  0.39115  1
