CIF file written using JARVIS-Tools package.
data_KTaAg2Se4
_symmetry_space_group_name_H-M  'Ama2'
_cell_length_a       6.0619
_cell_length_b       7.92914
_cell_length_c       10.3015
_cell_angle_alpha    90
_cell_angle_beta     107.111
_cell_angle_gamma    90

_symmetry_Int_Tables_number  40
_chemical_formula_structural  KTaAg2Se4
_chemical_formula_sum  K2Ta2Ag4Se8
_cell_volume  473.23269474067126
_cell_formula_units_Z  2
loop_
  _symmetry_equiv_pos_site_id
 _symmetry_equiv_pos_as_xyz
 1  'x, y, z'
loop_
 _atom_site_type_symbol
 _atom_site_label
 _atom_site_symmetry_multiplicity
 _atom_site_fract_x
 _atom_site_fract_y
 _atom_site_fract_z
 _atom_site_fract_occupancy
 Ag  Ag1  1  0.35618  0.00000  -0.00000  1
 Ag  Ag2  1  0.35618  0.50000  -0.00000  1
 Ag  Ag3  1  0.79094  0.75000  0.75769  1
 Ag  Ag4  1  0.03324  0.25000  0.24231  1
 K  K1  1  0.82294  0.75000  0.36377  1
 K  K2  1  0.45917  0.25000  0.63623  1
 Se  Se1  1  0.63805  0.75000  0.97329  1
 Se  Se2  1  0.66475  0.25000  0.02671  1
 Se  Se3  1  0.06509  0.00802  0.75581  1
 Se  Se4  1  0.30928  0.50802  0.24419  1
 Se  Se5  1  0.84423  0.25000  0.44102  1
 Se  Se6  1  0.30928  0.99198  0.24419  1
 Se  Se7  1  0.06509  0.49198  0.75581  1
 Se  Se8  1  0.40321  0.75000  0.55898  1
 Ta  Ta1  1  0.29678  0.75000  0.76778  1
 Ta  Ta2  1  0.52900  0.25000  0.23222  1
