CIF file written using JARVIS-Tools package.
data_BaP2H4O4
_symmetry_space_group_name_H-M  'Ccce'
_cell_length_a       8.23982
_cell_length_b       8.23982
_cell_length_c       6.18821
_cell_angle_alpha    90
_cell_angle_beta     90
_cell_angle_gamma    44.9306

_symmetry_Int_Tables_number  68
_chemical_formula_structural  BaP2H4O4
_chemical_formula_sum  Ba2P4H8O8
_cell_volume  296.7285385506492
_cell_formula_units_Z  2
loop_
  _symmetry_equiv_pos_site_id
 _symmetry_equiv_pos_as_xyz
 1  'x, y, z'
loop_
 _atom_site_type_symbol
 _atom_site_label
 _atom_site_symmetry_multiplicity
 _atom_site_fract_x
 _atom_site_fract_y
 _atom_site_fract_z
 _atom_site_fract_occupancy
 Ba  Ba1  1  0.25000  0.25000  0.75000  1
 Ba  Ba2  1  0.75000  0.75000  0.25000  1
 H  H1  1  0.83451  0.07784  0.62012  1
 H  H2  1  0.66549  0.42216  0.62012  1
 H  H3  1  0.92216  0.16549  0.12012  1
 H  H4  1  0.33451  0.57784  0.37988  1
 H  H5  1  0.07784  0.83451  0.87988  1
 H  H6  1  0.57784  0.33451  0.12012  1
 H  H7  1  0.16549  0.92216  0.37988  1
 H  H8  1  0.42216  0.66549  0.87988  1
 O  O1  1  0.99547  0.69690  0.60402  1
 O  O2  1  0.50453  0.80310  0.60402  1
 O  O3  1  0.80310  0.50453  0.89598  1
 O  O4  1  0.00453  0.30310  0.39598  1
 O  O5  1  0.49547  0.19690  0.39598  1
 O  O6  1  0.69690  0.99547  0.89598  1
 O  O7  1  0.19690  0.49547  0.10402  1
 O  O8  1  0.30310  0.00453  0.10402  1
 P  P1  1  0.89820  0.89820  0.75000  1
 P  P2  1  0.39820  0.39820  0.25000  1
 P  P3  1  0.10180  0.10180  0.25000  1
 P  P4  1  0.60180  0.60180  0.75000  1
