CIF file written using JARVIS-Tools package.
data_Co3Pt
_symmetry_space_group_name_H-M  'P6_3/mmc'
_cell_length_a       5.21337
_cell_length_b       5.21344
_cell_length_c       4.13805
_cell_angle_alpha    89.9979
_cell_angle_beta     90.0014
_cell_angle_gamma    120.001

_symmetry_Int_Tables_number  194
_chemical_formula_structural  Co3Pt
_chemical_formula_sum  Co6Pt2
_cell_volume  97.401070118947
_cell_formula_units_Z  2
loop_
  _symmetry_equiv_pos_site_id
 _symmetry_equiv_pos_as_xyz
 1  'x, y, z'
loop_
 _atom_site_type_symbol
 _atom_site_label
 _atom_site_symmetry_multiplicity
 _atom_site_fract_x
 _atom_site_fract_y
 _atom_site_fract_z
 _atom_site_fract_occupancy
 Co  Co1  1  0.15784  0.31571  0.25000  1
 Co  Co2  1  0.68431  0.84216  0.25000  1
 Co  Co3  1  0.15784  0.84214  0.25000  1
 Co  Co4  1  0.84216  0.68429  0.75001  1
 Co  Co5  1  0.31569  0.15785  0.75000  1
 Co  Co6  1  0.84217  0.15786  0.75000  1
 Pt  Pt1  1  0.33335  0.66667  0.75000  1
 Pt  Pt2  1  0.66665  0.33332  0.25000  1
