CIF file written using JARVIS-Tools package.
data_CoP2O7
_symmetry_space_group_name_H-M  'C2'
_cell_length_a       4.38898
_cell_length_b       4.98496
_cell_length_c       4.98495
_cell_angle_alpha    100.027
_cell_angle_beta     98.5278
_cell_angle_gamma    98.5278

_symmetry_Int_Tables_number  5
_chemical_formula_structural  CoP2O7
_chemical_formula_sum  CoP2O7
_cell_volume  104.50068894545772
_cell_formula_units_Z  1
loop_
  _symmetry_equiv_pos_site_id
 _symmetry_equiv_pos_as_xyz
 1  'x, y, z'
loop_
 _atom_site_type_symbol
 _atom_site_label
 _atom_site_symmetry_multiplicity
 _atom_site_fract_x
 _atom_site_fract_y
 _atom_site_fract_z
 _atom_site_fract_occupancy
 Co  Co1  1  0.72360  0.44482  0.94729  1
 O  O1  1  0.54321  0.67527  0.19600  1
 O  O2  1  0.00571  0.39509  0.24389  1
 O  O3  1  0.22360  0.88674  0.50536  1
 O  O4  1  0.44148  0.14822  0.99702  1
 O  O5  1  0.99616  0.76688  0.91994  1
 O  O6  1  0.90399  0.19610  0.71684  1
 O  O7  1  0.45103  0.47216  0.62523  1
 P  P1  1  0.13210  0.00464  0.79725  1
 P  P2  1  0.31509  0.59485  0.38747  1
