CIF file written using JARVIS-Tools package.
data_TlAgBr3
_symmetry_space_group_name_H-M  'R-3c'
_cell_length_a       7.41236
_cell_length_b       7.41237
_cell_length_c       7.41236
_cell_angle_alpha    61.759
_cell_angle_beta     61.759
_cell_angle_gamma    61.759

_symmetry_Int_Tables_number  167
_chemical_formula_structural  TlAgBr3
_chemical_formula_sum  Tl2Ag2Br6
_cell_volume  299.32518013873295
_cell_formula_units_Z  2
loop_
  _symmetry_equiv_pos_site_id
 _symmetry_equiv_pos_as_xyz
 1  'x, y, z'
loop_
 _atom_site_type_symbol
 _atom_site_label
 _atom_site_symmetry_multiplicity
 _atom_site_fract_x
 _atom_site_fract_y
 _atom_site_fract_z
 _atom_site_fract_occupancy
 Ag  Ag1  1  0.00576  0.00576  0.00576  1
 Ag  Ag2  1  0.50576  0.50576  0.50576  1
 Br  Br1  1  0.25572  0.81232  0.69921  1
 Br  Br2  1  0.81232  0.69921  0.25572  1
 Br  Br3  1  0.69921  0.25572  0.81232  1
 Br  Br4  1  0.19921  0.31232  0.75572  1
 Br  Br5  1  0.75572  0.19921  0.31232  1
 Br  Br6  1  0.31232  0.75572  0.19921  1
 Tl  Tl1  1  0.25549  0.25549  0.25549  1
 Tl  Tl2  1  0.75549  0.75549  0.75549  1
