CIF file written using JARVIS-Tools package.
data_CeP2Ru2
_symmetry_space_group_name_H-M  'I4/mmm'
_cell_length_a       4.07632
_cell_length_b       4.07632
_cell_length_c       5.68593
_cell_angle_alpha    111.005
_cell_angle_beta     111.005
_cell_angle_gamma    90

_symmetry_Int_Tables_number  139
_chemical_formula_structural  CeP2Ru2
_chemical_formula_sum  CeP2Ru2
_cell_volume  81.43993295824413
_cell_formula_units_Z  1
loop_
  _symmetry_equiv_pos_site_id
 _symmetry_equiv_pos_as_xyz
 1  'x, y, z'
loop_
 _atom_site_type_symbol
 _atom_site_label
 _atom_site_symmetry_multiplicity
 _atom_site_fract_x
 _atom_site_fract_y
 _atom_site_fract_z
 _atom_site_fract_occupancy
 Ce  Ce1  1  0.00000  0.00000  0.00000  1
 P  P1  1  0.37427  0.37427  0.74855  1
 P  P2  1  0.62573  0.62573  0.25145  1
 Ru  Ru1  1  0.25000  0.75000  0.50000  1
 Ru  Ru2  1  0.75000  0.25000  0.50000  1
