CIF file written using JARVIS-Tools package.
data_KNbAg2Se4
_symmetry_space_group_name_H-M  'Ama2'
_cell_length_a       6.04604
_cell_length_b       7.96344
_cell_length_c       10.2334
_cell_angle_alpha    90
_cell_angle_beta     107.182
_cell_angle_gamma    90

_symmetry_Int_Tables_number  40
_chemical_formula_structural  KNbAg2Se4
_chemical_formula_sum  K2Nb2Ag4Se8
_cell_volume  470.72074110576955
_cell_formula_units_Z  2
loop_
  _symmetry_equiv_pos_site_id
 _symmetry_equiv_pos_as_xyz
 1  'x, y, z'
loop_
 _atom_site_type_symbol
 _atom_site_label
 _atom_site_symmetry_multiplicity
 _atom_site_fract_x
 _atom_site_fract_y
 _atom_site_fract_z
 _atom_site_fract_occupancy
 Ag  Ag1  1  0.93186  0.50000  -0.00000  1
 Ag  Ag2  1  0.93186  0.00000  -0.00000  1
 Ag  Ag3  1  0.50096  0.75000  0.24065  1
 Ag  Ag4  1  0.26030  0.25000  0.75935  1
 K  K1  1  0.83057  0.25000  0.36133  1
 K  K2  1  0.46924  0.75000  0.63867  1
 Nb  Nb1  1  0.99632  0.75000  0.23228  1
 Nb  Nb2  1  0.76405  0.25000  0.76772  1
 Se  Se1  1  0.62839  0.25000  0.97659  1
 Se  Se2  1  0.23023  0.00803  0.24390  1
 Se  Se3  1  0.23023  0.49197  0.24390  1
 Se  Se4  1  0.88683  0.75000  0.44244  1
 Se  Se5  1  0.44439  0.25000  0.55756  1
 Se  Se6  1  0.98632  -0.00803  0.75610  1
 Se  Se7  1  0.65180  0.75000  0.02341  1
 Se  Se8  1  0.98632  0.50803  0.75610  1
