CIF file written using JARVIS-Tools package.
data_YbS2
_symmetry_space_group_name_H-M  'C2/c'
_cell_length_a       4.27201
_cell_length_b       4.87727
_cell_length_c       7.1729
_cell_angle_alpha    78.787
_cell_angle_beta     72.6753
_cell_angle_gamma    64.0269

_symmetry_Int_Tables_number  15
_chemical_formula_structural  YbS2
_chemical_formula_sum  Yb2S4
_cell_volume  127.90465793513023
_cell_formula_units_Z  2
loop_
  _symmetry_equiv_pos_site_id
 _symmetry_equiv_pos_as_xyz
 1  'x, y, z'
loop_
 _atom_site_type_symbol
 _atom_site_label
 _atom_site_symmetry_multiplicity
 _atom_site_fract_x
 _atom_site_fract_y
 _atom_site_fract_z
 _atom_site_fract_occupancy
 S  S1  1  0.21246  0.78890  0.52986  1
 S  S2  1  0.53121  0.71110  0.97014  1
 S  S3  1  0.78754  0.21110  0.47014  1
 S  S4  1  0.46879  0.28890  0.02986  1
 Yb  Yb1  1  0.86934  0.75000  0.25000  1
 Yb  Yb2  1  0.13066  0.25000  0.75000  1
