CIF file written using JARVIS-Tools package.
data_MnOF
_symmetry_space_group_name_H-M  'Pna2_1'
_cell_length_a       4.46338
_cell_length_b       5.11938
_cell_length_c       5.61544
_cell_angle_alpha    90
_cell_angle_beta     90
_cell_angle_gamma    90

_symmetry_Int_Tables_number  33
_chemical_formula_structural  MnOF
_chemical_formula_sum  Mn4O4F4
_cell_volume  128.31147692134985
_cell_formula_units_Z  4
loop_
  _symmetry_equiv_pos_site_id
 _symmetry_equiv_pos_as_xyz
 1  'x, y, z'
loop_
 _atom_site_type_symbol
 _atom_site_label
 _atom_site_symmetry_multiplicity
 _atom_site_fract_x
 _atom_site_fract_y
 _atom_site_fract_z
 _atom_site_fract_occupancy
 F  F1  1  0.74396  0.54243  0.36881  1
 F  F2  1  0.74396  0.04243  0.13119  1
 F  F3  1  0.24396  0.45757  0.63119  1
 F  F4  1  0.24396  0.95757  0.86881  1
 Mn  Mn1  1  0.98272  0.27847  0.90060  1
 Mn  Mn2  1  0.98272  0.77847  0.59940  1
 Mn  Mn3  1  0.48272  0.22153  0.40060  1
 Mn  Mn4  1  0.48272  0.72153  0.09940  1
 O  O1  1  0.77331  0.09867  0.63331  1
 O  O2  1  0.77331  0.59867  0.86669  1
 O  O3  1  0.27331  0.90133  0.36669  1
 O  O4  1  0.27331  0.40133  0.13331  1
