CIF file written using JARVIS-Tools package.
data_LiAgF2
_symmetry_space_group_name_H-M  'Pna2_1'
_cell_length_a       5.57641
_cell_length_b       5.28063
_cell_length_c       7.17415
_cell_angle_alpha    90
_cell_angle_beta     90
_cell_angle_gamma    90

_symmetry_Int_Tables_number  33
_chemical_formula_structural  LiAgF2
_chemical_formula_sum  Li4Ag4F8
_cell_volume  211.25703392802924
_cell_formula_units_Z  4
loop_
  _symmetry_equiv_pos_site_id
 _symmetry_equiv_pos_as_xyz
 1  'x, y, z'
loop_
 _atom_site_type_symbol
 _atom_site_label
 _atom_site_symmetry_multiplicity
 _atom_site_fract_x
 _atom_site_fract_y
 _atom_site_fract_z
 _atom_site_fract_occupancy
 Ag  Ag1  1  0.00809  0.06255  0.15795  1
 Ag  Ag2  1  0.50809  0.43745  0.65795  1
 Ag  Ag3  1  0.00809  0.56255  0.34205  1
 Ag  Ag4  1  0.50809  0.93745  0.84205  1
 F  F1  1  0.31355  0.02955  0.56728  1
 F  F2  1  0.43240  0.07138  0.14688  1
 F  F3  1  0.93240  0.42862  0.64688  1
 F  F4  1  0.81355  0.47045  0.06728  1
 F  F5  1  0.31355  0.52955  0.93272  1
 F  F6  1  0.43240  0.57138  0.35312  1
 F  F7  1  0.93240  0.92862  0.85312  1
 F  F8  1  0.81355  0.97045  0.43272  1
 Li  Li1  1  -0.00156  0.08428  0.62852  1
 Li  Li2  1  0.49844  0.41572  0.12852  1
 Li  Li3  1  -0.00156  0.58428  0.87148  1
 Li  Li4  1  0.49844  0.91572  0.37148  1
