CIF file written using JARVIS-Tools package.
data_Sc2ZnSe4
_symmetry_space_group_name_H-M  'Fd-3m'
_cell_length_a       7.79598
_cell_length_b       7.79598
_cell_length_c       7.79598
_cell_angle_alpha    60
_cell_angle_beta     60
_cell_angle_gamma    60

_symmetry_Int_Tables_number  227
_chemical_formula_structural  Sc2ZnSe4
_chemical_formula_sum  Sc4Zn2Se8
_cell_volume  335.0406389630149
_cell_formula_units_Z  2
loop_
  _symmetry_equiv_pos_site_id
 _symmetry_equiv_pos_as_xyz
 1  'x, y, z'
loop_
 _atom_site_type_symbol
 _atom_site_label
 _atom_site_symmetry_multiplicity
 _atom_site_fract_x
 _atom_site_fract_y
 _atom_site_fract_z
 _atom_site_fract_occupancy
 Sc  Sc1  1  -0.00000  0.00000  0.50000  1
 Sc  Sc2  1  0.00000  0.50000  0.00000  1
 Sc  Sc3  1  0.50000  -0.00000  0.00000  1
 Sc  Sc4  1  0.00000  0.00000  0.00000  1
 Se  Se1  1  0.24504  0.24504  0.76487  1
 Se  Se2  1  0.24504  0.76487  0.24504  1
 Se  Se3  1  0.76487  0.24504  0.24504  1
 Se  Se4  1  0.24504  0.24504  0.24504  1
 Se  Se5  1  0.75496  0.75496  0.23513  1
 Se  Se6  1  0.75496  0.23513  0.75496  1
 Se  Se7  1  0.23513  0.75496  0.75496  1
 Se  Se8  1  0.75496  0.75496  0.75496  1
 Zn  Zn1  1  0.37500  0.37500  0.37500  1
 Zn  Zn2  1  0.62500  0.62500  0.62500  1
