CIF file written using JARVIS-Tools package.
data_Li4Ca3Si2N6
_symmetry_space_group_name_H-M  'C2/m'
_cell_length_a       5.6588
_cell_length_b       5.6588
_cell_length_c       5.97133
_cell_angle_alpha    90.396
_cell_angle_beta     90.396
_cell_angle_gamma    118.469

_symmetry_Int_Tables_number  12
_chemical_formula_structural  Li4Ca3Si2N6
_chemical_formula_sum  Li4Ca3Si2N6
_cell_volume  168.07602088870968
_cell_formula_units_Z  1
loop_
  _symmetry_equiv_pos_site_id
 _symmetry_equiv_pos_as_xyz
 1  'x, y, z'
loop_
 _atom_site_type_symbol
 _atom_site_label
 _atom_site_symmetry_multiplicity
 _atom_site_fract_x
 _atom_site_fract_y
 _atom_site_fract_z
 _atom_site_fract_occupancy
 Ca  Ca1  1  0.31489  0.68511  0.50000  1
 Ca  Ca2  1  0.68511  0.31489  0.50000  1
 Ca  Ca3  1  0.50000  0.50000  -0.00000  1
 Li  Li1  1  0.03634  0.68351  0.12496  1
 Li  Li2  1  0.68351  0.03634  0.12496  1
 Li  Li3  1  0.96366  0.31649  0.87504  1
 Li  Li4  1  0.31649  0.96366  0.87504  1
 N  N1  1  0.36393  0.06400  0.20814  1
 N  N2  1  0.80521  0.80521  0.36688  1
 N  N3  1  0.19479  0.19479  0.63312  1
 N  N4  1  0.63607  0.93600  0.79186  1
 N  N5  1  0.93600  0.63607  0.79186  1
 N  N6  1  0.06400  0.36393  0.20814  1
 Si  Si1  1  0.88233  0.88233  0.67082  1
 Si  Si2  1  0.11767  0.11767  0.32918  1
