CIF file written using JARVIS-Tools package.
data_PuB6
_symmetry_space_group_name_H-M  'Pm-3m'
_cell_length_a       4.10706
_cell_length_b       4.10706
_cell_length_c       4.10706
_cell_angle_alpha    90
_cell_angle_beta     90
_cell_angle_gamma    90

_symmetry_Int_Tables_number  221
_chemical_formula_structural  PuB6
_chemical_formula_sum  PuB6
_cell_volume  69.27775851661934
_cell_formula_units_Z  1
loop_
  _symmetry_equiv_pos_site_id
 _symmetry_equiv_pos_as_xyz
 1  'x, y, z'
loop_
 _atom_site_type_symbol
 _atom_site_label
 _atom_site_symmetry_multiplicity
 _atom_site_fract_x
 _atom_site_fract_y
 _atom_site_fract_z
 _atom_site_fract_occupancy
 B  B1  1  0.19861  0.50000  0.50000  1
 B  B2  1  0.50000  0.50000  0.80139  1
 B  B3  1  0.50000  0.50000  0.19861  1
 B  B4  1  0.50000  0.19861  0.50000  1
 B  B5  1  0.50000  0.80139  0.50000  1
 B  B6  1  0.80139  0.50000  0.50000  1
 Pu  Pu1  1  0.00000  0.00000  0.00000  1
