CIF file written using JARVIS-Tools package.
data_HoCoSi
_symmetry_space_group_name_H-M  'Pnma'
_cell_length_a       4.18335
_cell_length_b       6.86932
_cell_length_c       6.86332
_cell_angle_alpha    90
_cell_angle_beta     90
_cell_angle_gamma    90

_symmetry_Int_Tables_number  62
_chemical_formula_structural  HoCoSi
_chemical_formula_sum  Ho4Co4Si4
_cell_volume  197.22964032069342
_cell_formula_units_Z  4
loop_
  _symmetry_equiv_pos_site_id
 _symmetry_equiv_pos_as_xyz
 1  'x, y, z'
loop_
 _atom_site_type_symbol
 _atom_site_label
 _atom_site_symmetry_multiplicity
 _atom_site_fract_x
 _atom_site_fract_y
 _atom_site_fract_z
 _atom_site_fract_occupancy
 Co  Co1  1  0.25000  0.56790  0.14803  1
 Co  Co2  1  0.75000  0.43210  0.85197  1
 Co  Co3  1  0.25000  0.93210  0.64803  1
 Co  Co4  1  0.75000  0.06790  0.35197  1
 Ho  Ho1  1  0.25000  0.18811  0.98203  1
 Ho  Ho2  1  0.75000  0.81189  0.01797  1
 Ho  Ho3  1  0.25000  0.31189  0.48203  1
 Ho  Ho4  1  0.75000  0.68811  0.51797  1
 Si  Si1  1  0.25000  0.60535  0.80472  1
 Si  Si2  1  0.75000  0.39465  0.19528  1
 Si  Si3  1  0.25000  0.89465  0.30472  1
 Si  Si4  1  0.75000  0.10535  0.69528  1
