CIF file written using JARVIS-Tools package.
data_BiTe
_symmetry_space_group_name_H-M  'P-3m1'
_cell_length_a       4.48408
_cell_length_b       4.48408
_cell_length_c       24.6281
_cell_angle_alpha    90
_cell_angle_beta     90
_cell_angle_gamma    120

_symmetry_Int_Tables_number  164
_chemical_formula_structural  BiTe
_chemical_formula_sum  Bi6Te6
_cell_volume  428.85357320619215
_cell_formula_units_Z  6
loop_
  _symmetry_equiv_pos_site_id
 _symmetry_equiv_pos_as_xyz
 1  'x, y, z'
loop_
 _atom_site_type_symbol
 _atom_site_label
 _atom_site_symmetry_multiplicity
 _atom_site_fract_x
 _atom_site_fract_y
 _atom_site_fract_z
 _atom_site_fract_occupancy
 Bi  Bi1  1  0.33333  0.66667  0.29089  1
 Bi  Bi2  1  0.66667  0.33333  0.70911  1
 Bi  Bi3  1  0.00000  0.00000  0.87409  1
 Bi  Bi4  1  0.00000  0.00000  0.12591  1
 Bi  Bi5  1  0.66667  0.33333  0.46585  1
 Bi  Bi6  1  0.33333  0.66667  0.53415  1
 Te  Te1  1  0.33333  0.66667  0.05648  1
 Te  Te2  1  0.66667  0.33333  0.94352  1
 Te  Te3  1  0.00000  0.00000  0.63875  1
 Te  Te4  1  0.00000  0.00000  0.36125  1
 Te  Te5  1  0.66667  0.33333  0.20898  1
 Te  Te6  1  0.33333  0.66667  0.79102  1
