CIF file written using JARVIS-Tools package.
data_AgCSN
_symmetry_space_group_name_H-M  'Pnnm'
_cell_length_a       3.9084
_cell_length_b       7.10936
_cell_length_c       11.2745
_cell_angle_alpha    90
_cell_angle_beta     90
_cell_angle_gamma    90

_symmetry_Int_Tables_number  58
_chemical_formula_structural  AgCSN
_chemical_formula_sum  Ag4C4S4N4
_cell_volume  313.27613402322
_cell_formula_units_Z  4
loop_
  _symmetry_equiv_pos_site_id
 _symmetry_equiv_pos_as_xyz
 1  'x, y, z'
loop_
 _atom_site_type_symbol
 _atom_site_label
 _atom_site_symmetry_multiplicity
 _atom_site_fract_x
 _atom_site_fract_y
 _atom_site_fract_z
 _atom_site_fract_occupancy
 Ag  Ag1  1  0.50000  0.33600  0.63373  1
 Ag  Ag2  1  0.00000  0.83600  0.86627  1
 Ag  Ag3  1  0.50000  0.66400  0.36627  1
 Ag  Ag4  1  0.00000  0.16400  0.13373  1
 C  C1  1  0.00000  0.36013  0.86951  1
 C  C2  1  0.00000  0.63987  0.13049  1
 C  C3  1  0.50000  0.13987  0.36951  1
 C  C4  1  0.50000  0.86013  0.63049  1
 N  N1  1  0.00000  0.26293  0.95384  1
 N  N2  1  0.50000  0.23707  0.45384  1
 N  N3  1  0.50000  0.76293  0.54616  1
 N  N4  1  0.00000  0.73707  0.04616  1
 S  S1  1  0.00000  0.49226  0.74933  1
 S  S2  1  0.50000  0.00774  0.24933  1
 S  S3  1  0.50000  0.99226  0.75067  1
 S  S4  1  0.00000  0.50774  0.25067  1
