CIF file written using JARVIS-Tools package.
data_Nd2HgO4
_symmetry_space_group_name_H-M  'C2/m'
_cell_length_a       3.82394
_cell_length_b       7.24845
_cell_length_c       9.19318
_cell_angle_alpha    77.0045
_cell_angle_beta     77.9962
_cell_angle_gamma    74.7057

_symmetry_Int_Tables_number  12
_chemical_formula_structural  Nd2HgO4
_chemical_formula_sum  Nd4Hg2O8
_cell_volume  236.47877346313678
_cell_formula_units_Z  2
loop_
  _symmetry_equiv_pos_site_id
 _symmetry_equiv_pos_as_xyz
 1  'x, y, z'
loop_
 _atom_site_type_symbol
 _atom_site_label
 _atom_site_symmetry_multiplicity
 _atom_site_fract_x
 _atom_site_fract_y
 _atom_site_fract_z
 _atom_site_fract_occupancy
 Hg  Hg1  1  0.11343  0.93311  0.84003  1
 Hg  Hg2  1  0.88657  0.06689  0.15997  1
 Nd  Nd1  1  0.61979  0.21929  0.54113  1
 Nd  Nd2  1  0.38021  0.78071  0.45887  1
 Nd  Nd3  1  0.83976  0.52147  0.79900  1
 Nd  Nd4  1  0.16024  0.47853  0.20100  1
 O  O1  1  0.20247  0.65215  0.94292  1
 O  O2  1  0.79753  0.34785  0.05708  1
 O  O3  1  0.03580  0.20625  0.72215  1
 O  O4  1  0.96420  0.79375  0.27785  1
 O  O5  1  0.41924  0.50795  0.65358  1
 O  O6  1  0.58076  0.49205  0.34642  1
 O  O7  1  0.22974  0.15207  0.38846  1
 O  O8  1  0.77026  0.84793  0.61154  1
