CIF file written using JARVIS-Tools package.
data_Te4Mo3S2
_symmetry_space_group_name_H-M  'Cmcm'
_cell_length_a       5.96111
_cell_length_b       13.9516
_cell_length_c       5.95381
_cell_angle_alpha    90
_cell_angle_beta     119.96
_cell_angle_gamma    89.9998

_symmetry_Int_Tables_number  63
_chemical_formula_structural  Te4Mo3S2
_chemical_formula_sum  Te8Mo6S4
_cell_volume  428.99844619577846
_cell_formula_units_Z  2
loop_
  _symmetry_equiv_pos_site_id
 _symmetry_equiv_pos_as_xyz
 1  'x, y, z'
loop_
 _atom_site_type_symbol
 _atom_site_label
 _atom_site_symmetry_multiplicity
 _atom_site_fract_x
 _atom_site_fract_y
 _atom_site_fract_z
 _atom_site_fract_occupancy
 Mo  Mo1  1  0.35472  0.25000  0.33907  1
 Mo  Mo2  1  0.35472  0.75000  0.01565  1
 Mo  Mo3  1  0.97862  0.25000  0.65102  1
 Mo  Mo4  1  0.97861  0.75000  0.32759  1
 Mo  Mo5  1  0.66667  0.25000  0.96185  1
 Mo  Mo6  1  0.66666  0.75000  0.70482  1
 S  S1  1  0.66667  0.63873  0.01627  1
 S  S2  1  0.66667  0.86127  0.01627  1
 S  S3  1  0.66667  0.36127  0.65040  1
 S  S4  1  0.66667  0.13873  0.65040  1
 Te  Te1  1  0.99842  0.38065  0.31641  1
 Te  Te2  1  0.33491  0.61935  0.35026  1
 Te  Te3  1  0.33492  0.11935  0.98466  1
 Te  Te4  1  0.33492  0.38065  0.98466  1
 Te  Te5  1  0.33491  0.88065  0.35026  1
 Te  Te6  1  0.99842  0.61935  0.68201  1
 Te  Te7  1  0.99842  0.11935  0.31641  1
 Te  Te8  1  0.99841  0.88065  0.68201  1
