CIF file written using JARVIS-Tools package.
data_Ag2PbO2
_symmetry_space_group_name_H-M  'C2/c'
_cell_length_a       6.1377
_cell_length_b       6.43492
_cell_length_c       6.43492
_cell_angle_alpha    87.7701
_cell_angle_beta     120.623
_cell_angle_gamma    120.623

_symmetry_Int_Tables_number  15
_chemical_formula_structural  Ag2PbO2
_chemical_formula_sum  Ag4Pb2O4
_cell_volume  179.66431919458452
_cell_formula_units_Z  2
loop_
  _symmetry_equiv_pos_site_id
 _symmetry_equiv_pos_as_xyz
 1  'x, y, z'
loop_
 _atom_site_type_symbol
 _atom_site_label
 _atom_site_symmetry_multiplicity
 _atom_site_fract_x
 _atom_site_fract_y
 _atom_site_fract_z
 _atom_site_fract_occupancy
 Ag  Ag1  1  0.50000  0.50000  -0.00000  1
 Ag  Ag2  1  0.00000  0.50000  0.50000  1
 Ag  Ag3  1  0.00000  0.50000  0.00000  1
 Ag  Ag4  1  0.50000  -0.00000  -0.00000  1
 O  O1  1  0.62471  0.13647  0.75007  1
 O  O2  1  0.37529  0.86353  0.24993  1
 O  O3  1  0.87529  0.74993  0.36353  1
 O  O4  1  0.12471  0.25007  0.63647  1
 Pb  Pb1  1  0.25000  0.12092  0.37908  1
 Pb  Pb2  1  0.75000  0.87908  0.62092  1
