CIF file written using JARVIS-Tools package.
data_SrMgGe
_symmetry_space_group_name_H-M  'Pnma'
_cell_length_a       4.60185
_cell_length_b       7.8235
_cell_length_c       8.58611
_cell_angle_alpha    90
_cell_angle_beta     90
_cell_angle_gamma    90

_symmetry_Int_Tables_number  62
_chemical_formula_structural  SrMgGe
_chemical_formula_sum  Sr4Mg4Ge4
_cell_volume  309.12198678303326
_cell_formula_units_Z  4
loop_
  _symmetry_equiv_pos_site_id
 _symmetry_equiv_pos_as_xyz
 1  'x, y, z'
loop_
 _atom_site_type_symbol
 _atom_site_label
 _atom_site_symmetry_multiplicity
 _atom_site_fract_x
 _atom_site_fract_y
 _atom_site_fract_z
 _atom_site_fract_occupancy
 Ge  Ge1  1  0.75000  0.22119  0.39025  1
 Ge  Ge2  1  0.25000  0.27881  0.89025  1
 Ge  Ge3  1  0.25000  0.77881  0.60975  1
 Ge  Ge4  1  0.75000  0.72119  0.10975  1
 Mg  Mg1  1  0.75000  0.35715  0.06314  1
 Mg  Mg2  1  0.25000  0.64285  0.93686  1
 Mg  Mg3  1  0.75000  0.85715  0.43686  1
 Mg  Mg4  1  0.25000  0.14285  0.56314  1
 Sr  Sr1  1  0.25000  0.01575  0.18314  1
 Sr  Sr2  1  0.25000  0.51575  0.31686  1
 Sr  Sr3  1  0.75000  0.48425  0.68314  1
 Sr  Sr4  1  0.75000  0.98425  0.81686  1
