CIF file written using JARVIS-Tools package.
data_CoSe2
_symmetry_space_group_name_H-M  'Pa-3'
_cell_length_a       5.84998
_cell_length_b       5.84998
_cell_length_c       5.84998
_cell_angle_alpha    90
_cell_angle_beta     90
_cell_angle_gamma    90

_symmetry_Int_Tables_number  205
_chemical_formula_structural  CoSe2
_chemical_formula_sum  Co4Se8
_cell_volume  200.1993657388879
_cell_formula_units_Z  4
loop_
  _symmetry_equiv_pos_site_id
 _symmetry_equiv_pos_as_xyz
 1  'x, y, z'
loop_
 _atom_site_type_symbol
 _atom_site_label
 _atom_site_symmetry_multiplicity
 _atom_site_fract_x
 _atom_site_fract_y
 _atom_site_fract_z
 _atom_site_fract_occupancy
 Co  Co1  1  0.00000  0.00000  0.00000  1
 Co  Co2  1  0.50000  0.00000  0.50000  1
 Co  Co3  1  0.50000  0.50000  0.00000  1
 Co  Co4  1  0.00000  0.50000  0.50000  1
 Se  Se1  1  0.37254  0.37254  0.37254  1
 Se  Se2  1  0.12746  0.62746  0.87254  1
 Se  Se3  1  0.87254  0.12746  0.62746  1
 Se  Se4  1  0.62746  0.87254  0.12746  1
 Se  Se5  1  0.62746  0.62746  0.62746  1
 Se  Se6  1  0.87254  0.37254  0.12746  1
 Se  Se7  1  0.12746  0.87254  0.37254  1
 Se  Se8  1  0.37254  0.12746  0.87254  1
