CIF file written using JARVIS-Tools package.
data_CaTi2O4
_symmetry_space_group_name_H-M  'C2/m'
_cell_length_a       3.03953
_cell_length_b       7.35904
_cell_length_c       7.82333
_cell_angle_alpha    78.6369
_cell_angle_beta     78.7986
_cell_angle_gamma    78.0852

_symmetry_Int_Tables_number  12
_chemical_formula_structural  CaTi2O4
_chemical_formula_sum  Ca2Ti4O8
_cell_volume  165.70080017488033
_cell_formula_units_Z  2
loop_
  _symmetry_equiv_pos_site_id
 _symmetry_equiv_pos_as_xyz
 1  'x, y, z'
loop_
 _atom_site_type_symbol
 _atom_site_label
 _atom_site_symmetry_multiplicity
 _atom_site_fract_x
 _atom_site_fract_y
 _atom_site_fract_z
 _atom_site_fract_occupancy
 Ca  Ca1  1  0.34883  0.15169  0.14323  1
 Ca  Ca2  1  0.63781  0.88460  0.83239  1
 O  O1  1  0.85211  0.61760  0.67078  1
 O  O2  1  0.45859  0.77806  0.29737  1
 O  O3  1  0.52807  0.25822  0.67825  1
 O  O4  1  0.13453  0.41868  0.30485  1
 O  O5  1  0.16334  0.67612  0.98981  1
 O  O6  1  0.76282  0.10198  0.36497  1
 O  O7  1  0.82332  0.36016  0.98580  1
 O  O8  1  0.22384  0.93429  0.61065  1
 Ti  Ti1  1  0.63168  0.56396  0.16531  1
 Ti  Ti2  1  0.13307  0.21277  0.51370  1
 Ti  Ti3  1  0.85359  0.82350  0.46192  1
 Ti  Ti4  1  0.35498  0.47231  0.81031  1
