CIF file written using JARVIS-Tools package.
data_K2SnH6O6
_symmetry_space_group_name_H-M  'R-3'
_cell_length_a       5.63106
_cell_length_b       5.63106
_cell_length_c       5.63106
_cell_angle_alpha    72.1438
_cell_angle_beta     72.1439
_cell_angle_gamma    72.1438

_symmetry_Int_Tables_number  148
_chemical_formula_structural  K2SnH6O6
_chemical_formula_sum  K2SnH6O6
_cell_volume  157.24917324642098
_cell_formula_units_Z  1
loop_
  _symmetry_equiv_pos_site_id
 _symmetry_equiv_pos_as_xyz
 1  'x, y, z'
loop_
 _atom_site_type_symbol
 _atom_site_label
 _atom_site_symmetry_multiplicity
 _atom_site_fract_x
 _atom_site_fract_y
 _atom_site_fract_z
 _atom_site_fract_occupancy
 H  H1  1  0.37317  0.81057  0.23905  1
 H  H2  1  0.23905  0.37317  0.81057  1
 H  H3  1  0.81057  0.23905  0.37317  1
 H  H4  1  0.62683  0.18943  0.76095  1
 H  H5  1  0.76095  0.62683  0.18943  1
 H  H6  1  0.18943  0.76095  0.62683  1
 K  K1  1  0.29232  0.29232  0.29232  1
 K  K2  1  0.70768  0.70768  0.70768  1
 O  O1  1  0.18923  0.80224  0.29761  1
 O  O2  1  0.29761  0.18923  0.80224  1
 O  O3  1  0.80224  0.29761  0.18923  1
 O  O4  1  0.81077  0.19776  0.70239  1
 O  O5  1  0.70239  0.81077  0.19776  1
 O  O6  1  0.19776  0.70239  0.81077  1
 Sn  Sn1  1  0.00000  0.00000  0.00000  1
