CIF file written using JARVIS-Tools package.
data_Te4Mo3S2
_symmetry_space_group_name_H-M  'Cm'
_cell_length_a       3.44343
_cell_length_b       9.02618
_cell_length_c       14.4545
_cell_angle_alpha    77.3934
_cell_angle_beta     83.1585
_cell_angle_gamma    79.0022

_symmetry_Int_Tables_number  8
_chemical_formula_structural  Te4Mo3S2
_chemical_formula_sum  Te8Mo6S4
_cell_volume  428.9699151843717
_cell_formula_units_Z  2
loop_
  _symmetry_equiv_pos_site_id
 _symmetry_equiv_pos_as_xyz
 1  'x, y, z'
loop_
 _atom_site_type_symbol
 _atom_site_label
 _atom_site_symmetry_multiplicity
 _atom_site_fract_x
 _atom_site_fract_y
 _atom_site_fract_z
 _atom_site_fract_occupancy
 Mo  Mo1  1  0.54329  0.16435  0.74899  1
 Mo  Mo2  1  0.13631  0.48215  0.24531  1
 Mo  Mo3  1  0.86987  0.51102  0.74919  1
 Mo  Mo4  1  0.45815  0.82875  0.25502  1
 Mo  Mo5  1  0.19593  0.85894  0.74913  1
 Mo  Mo6  1  0.79628  0.15525  0.25225  1
 S  S1  1  0.65193  0.34610  0.35015  1
 S  S2  1  0.38568  0.07792  0.15079  1
 S  S3  1  0.68481  0.98984  0.64044  1
 S  S4  1  0.61130  0.91931  0.85798  1
 Te  Te1  1  0.05832  0.76288  0.12058  1
 Te  Te2  1  0.94068  0.23739  0.88115  1
 Te  Te3  1  0.02962  0.32383  0.61686  1
 Te  Te4  1  0.73835  0.41231  0.11109  1
 Te  Te5  1  0.98042  0.65748  0.38176  1
 Te  Te6  1  0.26564  0.58952  0.87912  1
 Te  Te7  1  0.35366  0.67358  0.61904  1
 Te  Te8  1  0.29976  0.00938  0.39116  1
