CIF file written using JARVIS-Tools package.
data_Sr3Al2Ge4
_symmetry_space_group_name_H-M  'C2/m'
_cell_length_a       4.20921
_cell_length_b       6.67332
_cell_length_c       8.94965
_cell_angle_alpha    109.504
_cell_angle_beta     90
_cell_angle_gamma    108.384

_symmetry_Int_Tables_number  12
_chemical_formula_structural  Sr3Al2Ge4
_chemical_formula_sum  Sr3Al2Ge4
_cell_volume  223.30864262235582
_cell_formula_units_Z  1
loop_
  _symmetry_equiv_pos_site_id
 _symmetry_equiv_pos_as_xyz
 1  'x, y, z'
loop_
 _atom_site_type_symbol
 _atom_site_label
 _atom_site_symmetry_multiplicity
 _atom_site_fract_x
 _atom_site_fract_y
 _atom_site_fract_z
 _atom_site_fract_occupancy
 Al  Al1  1  0.29542  0.59084  0.64961  1
 Al  Al2  1  0.70458  0.40916  0.35039  1
 Ge  Ge1  1  0.29003  0.58005  0.94493  1
 Ge  Ge2  1  0.70997  0.41995  0.05507  1
 Ge  Ge3  1  0.10472  0.20944  0.39071  1
 Ge  Ge4  1  0.89528  0.79056  0.60929  1
 Sr  Sr1  1  0.39375  0.78751  0.31240  1
 Sr  Sr2  1  0.00000  0.00000  0.00000  1
 Sr  Sr3  1  0.60625  0.21249  0.68760  1
