CIF file written using JARVIS-Tools package.
data_TeMoS
_symmetry_space_group_name_H-M  'Pnma'
_cell_length_a       3.37094
_cell_length_b       14.0478
_cell_length_c       5.7682
_cell_angle_alpha    90.0018
_cell_angle_beta     89.9999
_cell_angle_gamma    89.9999

_symmetry_Int_Tables_number  62
_chemical_formula_structural  TeMoS
_chemical_formula_sum  Te4Mo4S4
_cell_volume  273.148910578878
_cell_formula_units_Z  4
loop_
  _symmetry_equiv_pos_site_id
 _symmetry_equiv_pos_as_xyz
 1  'x, y, z'
loop_
 _atom_site_type_symbol
 _atom_site_label
 _atom_site_symmetry_multiplicity
 _atom_site_fract_x
 _atom_site_fract_y
 _atom_site_fract_z
 _atom_site_fract_occupancy
 Mo  Mo1  1  0.50000  0.75051  0.23246  1
 Mo  Mo2  1  0.50000  0.25051  0.76753  1
 Mo  Mo3  1  1.00000  0.74949  0.73246  1
 Mo  Mo4  1  0.00000  0.24949  0.26755  1
 S  S1  1  0.50000  0.35306  0.10127  1
 S  S2  1  0.50000  0.85306  0.89876  1
 S  S3  1  -0.00000  0.64694  0.39873  1
 S  S4  1  0.00000  0.14694  0.60125  1
 Te  Te1  1  0.49999  0.61082  0.90031  1
 Te  Te2  1  0.50001  0.11082  0.09966  1
 Te  Te3  1  0.00001  0.38918  0.59968  1
 Te  Te4  1  -0.00001  0.88918  0.40034  1
