CIF file written using JARVIS-Tools package.
data_Te4Mo3S2
_symmetry_space_group_name_H-M  'C222_1'
_cell_length_a       5.92737
_cell_length_b       14.113
_cell_length_c       5.94143
_cell_angle_alpha    90.0002
_cell_angle_beta     119.922
_cell_angle_gamma    89.9955

_symmetry_Int_Tables_number  20
_chemical_formula_structural  Te4Mo3S2
_chemical_formula_sum  Te8Mo6S4
_cell_volume  430.76954834254224
_cell_formula_units_Z  2
loop_
  _symmetry_equiv_pos_site_id
 _symmetry_equiv_pos_as_xyz
 1  'x, y, z'
loop_
 _atom_site_type_symbol
 _atom_site_label
 _atom_site_symmetry_multiplicity
 _atom_site_fract_x
 _atom_site_fract_y
 _atom_site_fract_z
 _atom_site_fract_occupancy
 Mo  Mo1  1  0.32695  0.25000  0.33333  1
 Mo  Mo2  1  0.35696  0.74905  0.98307  1
 Mo  Mo3  1  0.97637  0.24905  0.68360  1
 Mo  Mo4  1  0.00639  0.75000  0.33333  1
 Mo  Mo5  1  0.62610  0.25095  0.98306  1
 Mo  Mo6  1  0.70723  0.75095  0.68360  1
 S  S1  1  0.31093  0.14682  0.00069  1
 S  S2  1  0.68976  0.85318  0.00067  1
 S  S3  1  0.64352  0.35318  0.66597  1
 S  S4  1  0.02247  0.64682  0.66600  1
 Te  Te1  1  0.69072  0.61152  0.99728  1
 Te  Te2  1  0.35836  0.62272  0.33635  1
 Te  Te3  1  0.30653  0.38848  0.99724  1
 Te  Te4  1  0.35529  0.87728  0.33032  1
 Te  Te5  1  0.97505  0.12273  0.33036  1
 Te  Te6  1  0.97797  0.37728  0.33631  1
 Te  Te7  1  0.02672  0.88848  0.66938  1
 Te  Te8  1  0.64269  0.11152  0.66942  1
