CIF file written using JARVIS-Tools package.
data_Mg2As
_symmetry_space_group_name_H-M  'Cmcm'
_cell_length_a       4.21297
_cell_length_b       8.80502
_cell_length_c       4.58078
_cell_angle_alpha    90
_cell_angle_beta     90
_cell_angle_gamma    76.1585

_symmetry_Int_Tables_number  63
_chemical_formula_structural  Mg2As
_chemical_formula_sum  Mg4As2
_cell_volume  164.99071401040618
_cell_formula_units_Z  2
loop_
  _symmetry_equiv_pos_site_id
 _symmetry_equiv_pos_as_xyz
 1  'x, y, z'
loop_
 _atom_site_type_symbol
 _atom_site_label
 _atom_site_symmetry_multiplicity
 _atom_site_fract_x
 _atom_site_fract_y
 _atom_site_fract_z
 _atom_site_fract_occupancy
 As  As1  1  0.39313  0.21375  0.00000  1
 As  As2  1  0.71798  0.56403  0.50000  1
 Mg  Mg1  1  0.99071  0.01858  0.00000  1
 Mg  Mg2  1  0.79217  0.41566  0.00000  1
 Mg  Mg3  1  0.31894  0.36212  0.50000  1
 Mg  Mg4  1  0.12040  0.75920  0.50000  1
