CIF file written using JARVIS-Tools package.
data_Y2Ga3Ni
_symmetry_space_group_name_H-M  'P3m1'
_cell_length_a       4.26229
_cell_length_b       4.26229
_cell_length_c       7.50679
_cell_angle_alpha    90
_cell_angle_beta     90
_cell_angle_gamma    120

_symmetry_Int_Tables_number  156
_chemical_formula_structural  Y2Ga3Ni
_chemical_formula_sum  Y2Ga3Ni
_cell_volume  118.10553122767017
_cell_formula_units_Z  1
loop_
  _symmetry_equiv_pos_site_id
 _symmetry_equiv_pos_as_xyz
 1  'x, y, z'
loop_
 _atom_site_type_symbol
 _atom_site_label
 _atom_site_symmetry_multiplicity
 _atom_site_fract_x
 _atom_site_fract_y
 _atom_site_fract_z
 _atom_site_fract_occupancy
 Ga  Ga1  1  0.66667  0.33333  0.01174  1
 Ga  Ga2  1  0.66667  0.33333  0.46006  1
 Ga  Ga3  1  0.00000  0.00000  0.54695  1
 Ni  Ni1  1  0.00000  0.00000  0.97437  1
 Y  Y1  1  0.33333  0.66667  0.77195  1
 Y  Y2  1  0.33333  0.66667  0.23492  1
