CIF file written using JARVIS-Tools package.
data_MgS2
_symmetry_space_group_name_H-M  'R-3m'
_cell_length_a       5.12345
_cell_length_b       5.12345
_cell_length_c       5.12345
_cell_angle_alpha    45.2659
_cell_angle_beta     45.2659
_cell_angle_gamma    45.2658

_symmetry_Int_Tables_number  166
_chemical_formula_structural  MgS2
_chemical_formula_sum  MgS2
_cell_volume  61.8075469037942
_cell_formula_units_Z  1
loop_
  _symmetry_equiv_pos_site_id
 _symmetry_equiv_pos_as_xyz
 1  'x, y, z'
loop_
 _atom_site_type_symbol
 _atom_site_label
 _atom_site_symmetry_multiplicity
 _atom_site_fract_x
 _atom_site_fract_y
 _atom_site_fract_z
 _atom_site_fract_occupancy
 Mg  Mg1  1  0.00000  0.00000  0.00000  1
 S  S1  1  0.42330  0.42330  0.42330  1
 S  S2  1  0.57670  0.57670  0.57670  1
