CIF file written using JARVIS-Tools package.
data_MnCd3Te4
_symmetry_space_group_name_H-M  'Pmm2'
_cell_length_a       4.62259
_cell_length_b       6.49501
_cell_length_c       9.20906
_cell_angle_alpha    90
_cell_angle_beta     90
_cell_angle_gamma    90

_symmetry_Int_Tables_number  25
_chemical_formula_structural  MnCd3Te4
_chemical_formula_sum  MnCd3Te4
_cell_volume  276.4906869161794
_cell_formula_units_Z  1
loop_
  _symmetry_equiv_pos_site_id
 _symmetry_equiv_pos_as_xyz
 1  'x, y, z'
loop_
 _atom_site_type_symbol
 _atom_site_label
 _atom_site_symmetry_multiplicity
 _atom_site_fract_x
 _atom_site_fract_y
 _atom_site_fract_z
 _atom_site_fract_occupancy
 Cd  Cd1  1  0.00000  0.00012  0.25649  1
 Cd  Cd2  1  0.50000  0.49807  0.00000  1
 Cd  Cd3  1  0.00000  0.00012  0.74351  1
 Mn  Mn1  1  0.50000  0.50268  0.50000  1
 Te  Te1  1  0.50000  0.25850  0.26074  1
 Te  Te2  1  0.00000  0.75483  0.00000  1
 Te  Te3  1  0.50000  0.25850  0.73926  1
 Te  Te4  1  0.00000  0.72717  0.50000  1
