CIF file written using JARVIS-Tools package.
data_PrSO
_symmetry_space_group_name_H-M  'C2/m'
_cell_length_a       4.05428
_cell_length_b       4.05428
_cell_length_c       7.04505
_cell_angle_alpha    81.6563
_cell_angle_beta     81.6563
_cell_angle_gamma    90.2216

_symmetry_Int_Tables_number  12
_chemical_formula_structural  PrSO
_chemical_formula_sum  Pr2S2O2
_cell_volume  113.32542589878707
_cell_formula_units_Z  2
loop_
  _symmetry_equiv_pos_site_id
 _symmetry_equiv_pos_as_xyz
 1  'x, y, z'
loop_
 _atom_site_type_symbol
 _atom_site_label
 _atom_site_symmetry_multiplicity
 _atom_site_fract_x
 _atom_site_fract_y
 _atom_site_fract_z
 _atom_site_fract_occupancy
 O  O1  1  0.74383  0.25617  0.50000  1
 O  O2  1  0.25617  0.74383  0.50000  1
 Pr  Pr1  1  0.71414  0.71414  0.67847  1
 Pr  Pr2  1  0.28586  0.28586  0.32153  1
 S  S1  1  0.85368  0.85368  0.12024  1
 S  S2  1  0.14632  0.14632  0.87976  1
