CIF file written using JARVIS-Tools package.
data_DyTl2InS4
_symmetry_space_group_name_H-M  'I-42m'
_cell_length_a       6.50007
_cell_length_b       6.50007
_cell_length_c       6.50007
_cell_angle_alpha    106.134
_cell_angle_beta     106.134
_cell_angle_gamma    116.374

_symmetry_Int_Tables_number  121
_chemical_formula_structural  DyTl2InS4
_chemical_formula_sum  DyTl2InS4
_cell_volume  209.08554739759856
_cell_formula_units_Z  1
loop_
  _symmetry_equiv_pos_site_id
 _symmetry_equiv_pos_as_xyz
 1  'x, y, z'
loop_
 _atom_site_type_symbol
 _atom_site_label
 _atom_site_symmetry_multiplicity
 _atom_site_fract_x
 _atom_site_fract_y
 _atom_site_fract_z
 _atom_site_fract_occupancy
 Dy  Dy1  1  0.50000  0.50000  -0.00000  1
 In  In1  1  0.00000  0.00000  0.00000  1
 S  S1  1  0.58836  0.93851  0.00000  1
 S  S2  1  0.93851  0.58836  0.00000  1
 S  S3  1  0.06149  0.06149  0.64985  1
 S  S4  1  0.41164  0.41164  0.35015  1
 Tl  Tl1  1  0.50000  0.00000  0.50000  1
 Tl  Tl2  1  -0.00000  0.50000  0.50000  1
