CIF file written using JARVIS-Tools package.
data_ErMgTl
_symmetry_space_group_name_H-M  'P-62m'
_cell_length_a       7.46955
_cell_length_b       7.46955
_cell_length_c       4.60136
_cell_angle_alpha    90
_cell_angle_beta     90
_cell_angle_gamma    120

_symmetry_Int_Tables_number  189
_chemical_formula_structural  ErMgTl
_chemical_formula_sum  Er3Mg3Tl3
_cell_volume  222.3339219193837
_cell_formula_units_Z  3
loop_
  _symmetry_equiv_pos_site_id
 _symmetry_equiv_pos_as_xyz
 1  'x, y, z'
loop_
 _atom_site_type_symbol
 _atom_site_label
 _atom_site_symmetry_multiplicity
 _atom_site_fract_x
 _atom_site_fract_y
 _atom_site_fract_z
 _atom_site_fract_occupancy
 Er  Er1  1  0.56978  -0.00000  0.00000  1
 Er  Er2  1  -0.00000  0.56978  0.00000  1
 Er  Er3  1  0.43022  0.43022  0.00000  1
 Mg  Mg1  1  0.24362  -0.00000  0.50000  1
 Mg  Mg2  1  -0.00000  0.24362  0.50000  1
 Mg  Mg3  1  0.75638  0.75638  0.50000  1
 Tl  Tl1  1  0.33333  0.66667  0.50000  1
 Tl  Tl2  1  0.66667  0.33333  0.50000  1
 Tl  Tl3  1  0.00000  0.00000  0.00000  1
