CIF file written using JARVIS-Tools package.
data_NdSiOs2C
_symmetry_space_group_name_H-M  'Cmcm'
_cell_length_a       5.92689
_cell_length_b       5.92689
_cell_length_c       7.20406
_cell_angle_alpha    90
_cell_angle_beta     90
_cell_angle_gamma    140.771

_symmetry_Int_Tables_number  63
_chemical_formula_structural  NdSiOs2C
_chemical_formula_sum  Nd2Si2Os4C2
_cell_volume  160.0431628580387
_cell_formula_units_Z  2
loop_
  _symmetry_equiv_pos_site_id
 _symmetry_equiv_pos_as_xyz
 1  'x, y, z'
loop_
 _atom_site_type_symbol
 _atom_site_label
 _atom_site_symmetry_multiplicity
 _atom_site_fract_x
 _atom_site_fract_y
 _atom_site_fract_z
 _atom_site_fract_occupancy
 C  C1  1  0.00000  0.00000  0.00000  1
 C  C2  1  0.00000  0.00000  0.50000  1
 Nd  Nd1  1  0.54916  0.45084  0.25000  1
 Nd  Nd2  1  0.45084  0.54916  0.75000  1
 Os  Os1  1  0.83405  0.16595  0.05880  1
 Os  Os2  1  0.16595  0.83405  0.94120  1
 Os  Os3  1  0.16595  0.83405  0.55880  1
 Os  Os4  1  0.83405  0.16595  0.44120  1
 Si  Si1  1  0.27043  0.72957  0.25000  1
 Si  Si2  1  0.72957  0.27043  0.75000  1
