CIF file written using JARVIS-Tools package.
data_TbFeSi2
_symmetry_space_group_name_H-M  'P2_1/m'
_cell_length_a       3.97949
_cell_length_b       4.27015
_cell_length_c       7.96723
_cell_angle_alpha    76.3909
_cell_angle_beta     90
_cell_angle_gamma    90

_symmetry_Int_Tables_number  11
_chemical_formula_structural  TbFeSi2
_chemical_formula_sum  Tb2Fe2Si4
_cell_volume  131.58602432799168
_cell_formula_units_Z  2
loop_
  _symmetry_equiv_pos_site_id
 _symmetry_equiv_pos_as_xyz
 1  'x, y, z'
loop_
 _atom_site_type_symbol
 _atom_site_label
 _atom_site_symmetry_multiplicity
 _atom_site_fract_x
 _atom_site_fract_y
 _atom_site_fract_z
 _atom_site_fract_occupancy
 Fe  Fe1  1  0.25000  0.88446  0.38971  1
 Fe  Fe2  1  0.75000  0.11554  0.61029  1
 Si  Si1  1  0.25000  0.95347  0.09808  1
 Si  Si2  1  0.75000  0.04653  0.90192  1
 Si  Si3  1  0.25000  0.32574  0.49541  1
 Si  Si4  1  0.75000  0.67426  0.50459  1
 Tb  Tb1  1  0.25000  0.60532  0.79384  1
 Tb  Tb2  1  0.75000  0.39468  0.20616  1
