CIF file written using JARVIS-Tools package.
data_Sr4Nb2O9
_symmetry_space_group_name_H-M  'P6_3/m'
_cell_length_a       5.93559
_cell_length_b       5.93548
_cell_length_c       15.7386
_cell_angle_alpha    89.9999
_cell_angle_beta     89.9997
_cell_angle_gamma    60.0005

_symmetry_Int_Tables_number  176
_chemical_formula_structural  Sr4Nb2O9
_chemical_formula_sum  Sr8Nb4O8
_cell_volume  480.1951308852435
_cell_formula_units_Z  2
loop_
  _symmetry_equiv_pos_site_id
 _symmetry_equiv_pos_as_xyz
 1  'x, y, z'
loop_
 _atom_site_type_symbol
 _atom_site_label
 _atom_site_symmetry_multiplicity
 _atom_site_fract_x
 _atom_site_fract_y
 _atom_site_fract_z
 _atom_site_fract_occupancy
 Nb  Nb1  1  0.33334  0.33333  0.65357  1
 Nb  Nb2  1  0.66666  0.66667  0.34643  1
 Nb  Nb3  1  0.66666  0.66667  0.15356  1
 Nb  Nb4  1  0.33334  0.33333  0.84644  1
 O  O1  1  0.07817  0.65181  0.89798  1
 O  O2  1  0.72998  0.92185  0.39796  1
 O  O3  1  0.27002  0.07815  0.60204  1
 O  O4  1  0.72997  0.92186  0.10202  1
 O  O5  1  0.65181  0.27003  0.60203  1
 O  O6  1  0.92184  0.34817  0.39795  1
 O  O7  1  0.07816  0.65183  0.60205  1
 O  O8  1  0.40872  0.55572  0.75001  1
 O  O9  1  0.34819  0.72997  0.39797  1
 O  O10  1  0.03559  0.40868  0.75001  1
 O  O11  1  0.96441  0.59132  0.24999  1
 O  O12  1  0.55575  0.03556  0.75001  1
 O  O13  1  0.27003  0.07814  0.89798  1
 O  O14  1  0.92183  0.34819  0.10202  1
 O  O15  1  0.59128  0.44428  0.24999  1
 O  O16  1  0.34819  0.72998  0.10201  1
 O  O17  1  0.65181  0.27002  0.89799  1
 O  O18  1  0.44425  0.96444  0.24999  1
 Sr  Sr1  1  0.00003  0.99997  0.75002  1
 Sr  Sr2  1  0.00000  -0.00000  0.50000  1
 Sr  Sr3  1  0.66668  0.66666  0.63869  1
 Sr  Sr4  1  0.33332  0.33334  0.36131  1
 Sr  Sr5  1  0.99997  0.00003  0.24998  1
 Sr  Sr6  1  0.66668  0.66665  0.86136  1
 Sr  Sr7  1  0.33332  0.33335  0.13864  1
 Sr  Sr8  1  0.00000  0.00000  0.00000  1
