CIF file written using JARVIS-Tools package.
data_AlAgP2Se6
_symmetry_space_group_name_H-M  'C2'
_cell_length_a       6.40914
_cell_length_b       6.40913
_cell_length_c       7.09558
_cell_angle_alpha    81.6684
_cell_angle_beta     81.6683
_cell_angle_gamma    120.035

_symmetry_Int_Tables_number  5
_chemical_formula_structural  AlAgP2Se6
_chemical_formula_sum  AlAgP2Se6
_cell_volume  241.48783523378816
_cell_formula_units_Z  1
loop_
  _symmetry_equiv_pos_site_id
 _symmetry_equiv_pos_as_xyz
 1  'x, y, z'
loop_
 _atom_site_type_symbol
 _atom_site_label
 _atom_site_symmetry_multiplicity
 _atom_site_fract_x
 _atom_site_fract_y
 _atom_site_fract_z
 _atom_site_fract_occupancy
 Ag  Ag1  1  0.66697  0.33303  0.00000  1
 Al  Al1  1  0.33282  0.66718  -0.00000  1
 P  P1  1  0.05337  0.05283  0.83424  1
 P  P2  1  0.94717  0.94663  0.16576  1
 Se  Se1  1  0.11949  0.43689  0.74801  1
 Se  Se2  1  0.39766  0.04175  0.74369  1
 Se  Se3  1  0.95825  0.60234  0.25631  1
 Se  Se4  1  0.56311  0.88051  0.25199  1
 Se  Se5  1  0.72496  0.76379  0.74696  1
 Se  Se6  1  0.23621  0.27504  0.25304  1
