CIF file written using JARVIS-Tools package.
data_Ta2O5
_symmetry_space_group_name_H-M  'C2/m'
_cell_length_a       5.53905
_cell_length_b       5.53906
_cell_length_c       3.84344
_cell_angle_alpha    64.9053
_cell_angle_beta     64.9052
_cell_angle_gamma    86.9619

_symmetry_Int_Tables_number  12
_chemical_formula_structural  Ta2O5
_chemical_formula_sum  Ta2O5
_cell_volume  95.54577612445863
_cell_formula_units_Z  1
loop_
  _symmetry_equiv_pos_site_id
 _symmetry_equiv_pos_as_xyz
 1  'x, y, z'
loop_
 _atom_site_type_symbol
 _atom_site_label
 _atom_site_symmetry_multiplicity
 _atom_site_fract_x
 _atom_site_fract_y
 _atom_site_fract_z
 _atom_site_fract_occupancy
 O  O1  1  0.48480  0.51520  0.50000  1
 O  O2  1  -0.01515  0.51594  -0.00061  1
 O  O3  1  0.86438  0.89586  0.39374  1
 O  O4  1  0.10414  0.13562  0.60626  1
 O  O5  1  0.48406  0.01515  0.00061  1
 Ta  Ta1  1  0.20025  0.23147  0.97003  1
 Ta  Ta2  1  0.76853  0.79975  0.02997  1
