CIF file written using JARVIS-Tools package.
data_AlCuP2Se6
_symmetry_space_group_name_H-M  'R3'
_cell_length_a       7.64508
_cell_length_b       7.64508
_cell_length_c       7.64508
_cell_angle_alpha    49.1734
_cell_angle_beta     49.1734
_cell_angle_gamma    49.1734

_symmetry_Int_Tables_number  146
_chemical_formula_structural  AlCuP2Se6
_chemical_formula_sum  AlCuP2Se6
_cell_volume  235.0084321602274
_cell_formula_units_Z  1
loop_
  _symmetry_equiv_pos_site_id
 _symmetry_equiv_pos_as_xyz
 1  'x, y, z'
loop_
 _atom_site_type_symbol
 _atom_site_label
 _atom_site_symmetry_multiplicity
 _atom_site_fract_x
 _atom_site_fract_y
 _atom_site_fract_z
 _atom_site_fract_occupancy
 Al  Al1  1  0.18085  0.18085  0.18085  1
 Cu  Cu1  1  0.77629  0.77629  0.77629  1
 P  P1  1  0.56219  0.56219  0.56219  1
 P  P2  1  0.45090  0.45090  0.45090  1
 Se  Se1  1  0.93458  0.25892  0.57590  1
 Se  Se2  1  0.57590  0.93458  0.25892  1
 Se  Se3  1  0.25892  0.57590  0.93458  1
 Se  Se4  1  0.10395  0.78142  0.37501  1
 Se  Se5  1  0.37501  0.10395  0.78142  1
 Se  Se6  1  0.78142  0.37501  0.10395  1
