CIF file written using JARVIS-Tools package.
data_SmCdIn
_symmetry_space_group_name_H-M  'P-3m1'
_cell_length_a       4.88135
_cell_length_b       4.88136
_cell_length_c       7.60442
_cell_angle_alpha    90
_cell_angle_beta     90
_cell_angle_gamma    120

_symmetry_Int_Tables_number  164
_chemical_formula_structural  SmCdIn
_chemical_formula_sum  Sm2Cd2In2
_cell_volume  156.9195299892199
_cell_formula_units_Z  2
loop_
  _symmetry_equiv_pos_site_id
 _symmetry_equiv_pos_as_xyz
 1  'x, y, z'
loop_
 _atom_site_type_symbol
 _atom_site_label
 _atom_site_symmetry_multiplicity
 _atom_site_fract_x
 _atom_site_fract_y
 _atom_site_fract_z
 _atom_site_fract_occupancy
 Cd  Cd1  1  0.33333  0.66667  0.47504  1
 Cd  Cd2  1  0.66667  0.33333  0.52496  1
 In  In1  1  0.66667  0.33333  0.94506  1
 In  In2  1  0.33333  0.66667  0.05494  1
 Sm  Sm1  1  0.00000  0.00000  0.26217  1
 Sm  Sm2  1  0.00000  0.00000  0.73783  1
