CIF file written using JARVIS-Tools package.
data_CrGa2S4
_symmetry_space_group_name_H-M  'P-3m1'
_cell_length_a       3.59892
_cell_length_b       3.59882
_cell_length_c       12.1877
_cell_angle_alpha    89.9926
_cell_angle_beta     90.0011
_cell_angle_gamma    120.005

_symmetry_Int_Tables_number  164
_chemical_formula_structural  CrGa2S4
_chemical_formula_sum  CrGa2S4
_cell_volume  136.69828872891458
_cell_formula_units_Z  1
loop_
  _symmetry_equiv_pos_site_id
 _symmetry_equiv_pos_as_xyz
 1  'x, y, z'
loop_
 _atom_site_type_symbol
 _atom_site_label
 _atom_site_symmetry_multiplicity
 _atom_site_fract_x
 _atom_site_fract_y
 _atom_site_fract_z
 _atom_site_fract_occupancy
 Cr  Cr1  1  0.99995  0.00001  0.50000  1
 Ga  Ga1  1  0.33336  0.66684  0.21610  1
 Ga  Ga2  1  0.66656  0.33316  0.78390  1
 S  S1  1  0.33329  0.66677  0.40185  1
 S  S2  1  0.66662  0.33324  0.59815  1
 S  S3  1  0.33322  0.66643  0.87101  1
 S  S4  1  0.66670  0.33356  0.12898  1
