CIF file written using JARVIS-Tools package.
data_Li2AgO2
_symmetry_space_group_name_H-M  'Immm'
_cell_length_a       5.46611
_cell_length_b       5.46611
_cell_length_c       5.46611
_cell_angle_alpha    146.536
_cell_angle_beta     141.087
_cell_angle_gamma    52.2419

_symmetry_Int_Tables_number  71
_chemical_formula_structural  Li2AgO2
_chemical_formula_sum  Li2AgO2
_cell_volume  56.24818385744635
_cell_formula_units_Z  1
loop_
  _symmetry_equiv_pos_site_id
 _symmetry_equiv_pos_as_xyz
 1  'x, y, z'
loop_
 _atom_site_type_symbol
 _atom_site_label
 _atom_site_symmetry_multiplicity
 _atom_site_fract_x
 _atom_site_fract_y
 _atom_site_fract_z
 _atom_site_fract_occupancy
 Ag  Ag1  1  0.50000  -0.00000  0.50000  1
 Li  Li1  1  0.21384  0.71384  0.50000  1
 Li  Li2  1  0.78616  0.28616  0.50000  1
 O  O1  1  0.65425  0.65425  0.00000  1
 O  O2  1  0.34575  0.34575  0.00000  1
