CIF file written using JARVIS-Tools package.
data_KSi4Pd4
_symmetry_space_group_name_H-M  'I4'
_cell_length_a       6.4203
_cell_length_b       6.4203
_cell_length_c       6.42031
_cell_angle_alpha    97.5063
_cell_angle_beta     97.5064
_cell_angle_gamma    137.623

_symmetry_Int_Tables_number  79
_chemical_formula_structural  KSi4Pd4
_chemical_formula_sum  KSi4Pd4
_cell_volume  166.31457569676255
_cell_formula_units_Z  1
loop_
  _symmetry_equiv_pos_site_id
 _symmetry_equiv_pos_as_xyz
 1  'x, y, z'
loop_
 _atom_site_type_symbol
 _atom_site_label
 _atom_site_symmetry_multiplicity
 _atom_site_fract_x
 _atom_site_fract_y
 _atom_site_fract_z
 _atom_site_fract_occupancy
 K  K1  1  0.48024  0.48024  -0.00000  1
 Pd  Pd1  1  0.15293  0.66758  0.85435  1
 Pd  Pd2  1  0.81324  0.29858  0.14565  1
 Pd  Pd3  1  0.29858  0.15293  0.48535  1
 Pd  Pd4  1  0.66758  0.81324  0.51465  1
 Si  Si1  1  0.36929  0.87076  0.27384  1
 Si  Si2  1  0.59692  0.09545  0.72616  1
 Si  Si3  1  0.09545  0.36929  0.49853  1
 Si  Si4  1  0.87076  0.59692  0.50147  1
