CIF file written using JARVIS-Tools package.
data_AlB
_symmetry_space_group_name_H-M  'P1'
_cell_length_a       5.04361
_cell_length_b       4.15637
_cell_length_c       3.7301
_cell_angle_alpha    96.229
_cell_angle_beta     63.6711
_cell_angle_gamma    53.218

_symmetry_Int_Tables_number  1
_chemical_formula_structural  AlB
_chemical_formula_sum  Al2B2
_cell_volume  47.906840702814364
_cell_formula_units_Z  2
loop_
  _symmetry_equiv_pos_site_id
 _symmetry_equiv_pos_as_xyz
 1  'x, y, z'
loop_
 _atom_site_type_symbol
 _atom_site_label
 _atom_site_symmetry_multiplicity
 _atom_site_fract_x
 _atom_site_fract_y
 _atom_site_fract_z
 _atom_site_fract_occupancy
 Al  Al1  1  0.09070  -0.05177  0.06682  1
 Al  Al2  1  0.73961  0.71678  -0.00609  1
 B  B1  1  0.68933  0.24673  0.83497  1
 B  B2  1  0.42873  0.18413  0.74130  1
