CIF file written using JARVIS-Tools package.
data_LiCoF
_symmetry_space_group_name_H-M  'Pm'
_cell_length_a       5.4362
_cell_length_b       5.96138
_cell_length_c       2.51354
_cell_angle_alpha    90
_cell_angle_beta     90
_cell_angle_gamma    25.5272

_symmetry_Int_Tables_number  6
_chemical_formula_structural  LiCoF
_chemical_formula_sum  LiCoF
_cell_volume  35.10311899435615
_cell_formula_units_Z  1
loop_
  _symmetry_equiv_pos_site_id
 _symmetry_equiv_pos_as_xyz
 1  'x, y, z'
loop_
 _atom_site_type_symbol
 _atom_site_label
 _atom_site_symmetry_multiplicity
 _atom_site_fract_x
 _atom_site_fract_y
 _atom_site_fract_z
 _atom_site_fract_occupancy
 Co  Co1  1  -0.07145  -0.07563  0.00000  1
 F  F1  1  0.29358  -0.07953  0.00000  1
 Li  Li1  1  -0.00398  0.42908  0.00000  1
