CIF file written using JARVIS-Tools package.
data_LiVF4
_symmetry_space_group_name_H-M  'Cmmm'
_cell_length_a       4.57561
_cell_length_b       4.57561
_cell_length_c       6.18824
_cell_angle_alpha    90
_cell_angle_beta     90
_cell_angle_gamma    89.3152

_symmetry_Int_Tables_number  65
_chemical_formula_structural  LiVF4
_chemical_formula_sum  Li2V2F8
_cell_volume  129.549196059105
_cell_formula_units_Z  2
loop_
  _symmetry_equiv_pos_site_id
 _symmetry_equiv_pos_as_xyz
 1  'x, y, z'
loop_
 _atom_site_type_symbol
 _atom_site_label
 _atom_site_symmetry_multiplicity
 _atom_site_fract_x
 _atom_site_fract_y
 _atom_site_fract_z
 _atom_site_fract_occupancy
 F  F1  1  0.19316  0.19310  0.25000  1
 F  F2  1  0.19310  0.19316  0.75000  1
 F  F3  1  0.29433  0.70567  0.50002  1
 F  F4  1  0.29433  0.70567  -0.00002  1
 F  F5  1  0.70567  0.29433  0.00002  1
 F  F6  1  0.70567  0.29433  0.49998  1
 F  F7  1  0.80690  0.80684  0.25000  1
 F  F8  1  0.80684  0.80690  0.75000  1
 Li  Li1  1  0.50002  0.49998  0.75000  1
 Li  Li2  1  0.49998  0.50002  0.25000  1
 V  V1  1  0.00000  0.00000  0.00000  1
 V  V2  1  0.00000  0.00000  0.50000  1
