CIF file written using JARVIS-Tools package.
data_InS
_symmetry_space_group_name_H-M  'P-1'
_cell_length_a       6.1818
_cell_length_b       4.41844
_cell_length_c       5.95938
_cell_angle_alpha    42.1918
_cell_angle_beta     91.992
_cell_angle_gamma    109.706

_symmetry_Int_Tables_number  2
_chemical_formula_structural  InS
_chemical_formula_sum  In2S2
_cell_volume  96.78165126433328
_cell_formula_units_Z  2
loop_
  _symmetry_equiv_pos_site_id
 _symmetry_equiv_pos_as_xyz
 1  'x, y, z'
loop_
 _atom_site_type_symbol
 _atom_site_label
 _atom_site_symmetry_multiplicity
 _atom_site_fract_x
 _atom_site_fract_y
 _atom_site_fract_z
 _atom_site_fract_occupancy
 In  In1  1  -0.12188  -0.22077  0.12756  1
 In  In2  1  0.34563  -0.02220  0.89233  1
 S  S1  1  0.42405  0.18535  0.35323  1
 S  S2  1  0.79970  0.57170  0.66666  1
