CIF file written using JARVIS-Tools package.
data_NaAlF4
_symmetry_space_group_name_H-M  'Cmcm'
_cell_length_a       7.70651
_cell_length_b       7.70651
_cell_length_c       5.28381
_cell_angle_alpha    90
_cell_angle_beta     90
_cell_angle_gamma    152.596

_symmetry_Int_Tables_number  63
_chemical_formula_structural  NaAlF4
_chemical_formula_sum  Na2Al2F8
_cell_volume  144.43228587969625
_cell_formula_units_Z  2
loop_
  _symmetry_equiv_pos_site_id
 _symmetry_equiv_pos_as_xyz
 1  'x, y, z'
loop_
 _atom_site_type_symbol
 _atom_site_label
 _atom_site_symmetry_multiplicity
 _atom_site_fract_x
 _atom_site_fract_y
 _atom_site_fract_z
 _atom_site_fract_occupancy
 Al  Al1  1  0.91446  0.08554  0.75000  1
 Al  Al2  1  0.08554  0.91446  0.25000  1
 F  F1  1  0.82925  0.17075  0.51194  1
 F  F2  1  0.17075  0.82925  0.48806  1
 F  F3  1  0.82925  0.17075  0.98806  1
 F  F4  1  0.17075  0.82925  0.01194  1
 F  F5  1  0.00000  0.00000  0.00000  1
 F  F6  1  0.00000  0.00000  0.50000  1
 F  F7  1  0.41877  0.58123  0.75000  1
 F  F8  1  0.58123  0.41877  0.25000  1
 Na  Na1  1  0.69443  0.30557  0.75000  1
 Na  Na2  1  0.30557  0.69443  0.25000  1
