CIF file written using JARVIS-Tools package.
data_ScSiPd
_symmetry_space_group_name_H-M  'Pnma'
_cell_length_a       4.01353
_cell_length_b       6.57821
_cell_length_c       7.56101
_cell_angle_alpha    90
_cell_angle_beta     90
_cell_angle_gamma    90

_symmetry_Int_Tables_number  62
_chemical_formula_structural  ScSiPd
_chemical_formula_sum  Sc4Si4Pd4
_cell_volume  199.624698209874
_cell_formula_units_Z  4
loop_
  _symmetry_equiv_pos_site_id
 _symmetry_equiv_pos_as_xyz
 1  'x, y, z'
loop_
 _atom_site_type_symbol
 _atom_site_label
 _atom_site_symmetry_multiplicity
 _atom_site_fract_x
 _atom_site_fract_y
 _atom_site_fract_z
 _atom_site_fract_occupancy
 Pd  Pd1  1  0.25000  0.16022  0.93159  1
 Pd  Pd2  1  0.25000  0.66022  0.56841  1
 Pd  Pd3  1  0.75000  0.83978  0.06841  1
 Pd  Pd4  1  0.75000  0.33978  0.43159  1
 Sc  Sc1  1  0.25000  0.01868  0.31359  1
 Sc  Sc2  1  0.25000  0.51868  0.18641  1
 Sc  Sc3  1  0.75000  0.98132  0.68641  1
 Sc  Sc4  1  0.75000  0.48132  0.81359  1
 Si  Si1  1  0.25000  0.27361  0.61512  1
 Si  Si2  1  0.25000  0.77361  0.88488  1
 Si  Si3  1  0.75000  0.72639  0.38488  1
 Si  Si4  1  0.75000  0.22639  0.11512  1
