CIF file written using JARVIS-Tools package.
data_ThP2
_symmetry_space_group_name_H-M  'Pnma'
_cell_length_a       3.88111
_cell_length_b       7.23021
_cell_length_c       9.45908
_cell_angle_alpha    90
_cell_angle_beta     90
_cell_angle_gamma    90

_symmetry_Int_Tables_number  62
_chemical_formula_structural  ThP2
_chemical_formula_sum  Th4P8
_cell_volume  265.4335894548239
_cell_formula_units_Z  4
loop_
  _symmetry_equiv_pos_site_id
 _symmetry_equiv_pos_as_xyz
 1  'x, y, z'
loop_
 _atom_site_type_symbol
 _atom_site_label
 _atom_site_symmetry_multiplicity
 _atom_site_fract_x
 _atom_site_fract_y
 _atom_site_fract_z
 _atom_site_fract_occupancy
 P  P1  1  0.25000  0.91454  0.96050  1
 P  P2  1  0.25000  0.41454  0.53950  1
 P  P3  1  0.75000  0.08546  0.03950  1
 P  P4  1  0.75000  0.58546  0.46050  1
 P  P5  1  0.25000  0.89595  0.33929  1
 P  P6  1  0.25000  0.39595  0.16071  1
 P  P7  1  0.75000  0.10405  0.66071  1
 P  P8  1  0.75000  0.60405  0.83929  1
 Th  Th1  1  0.25000  0.29983  0.84734  1
 Th  Th2  1  0.25000  0.79983  0.65266  1
 Th  Th3  1  0.75000  0.70017  0.15266  1
 Th  Th4  1  0.75000  0.20017  0.34734  1
