CIF file written using JARVIS-Tools package.
data_TlZnF
_symmetry_space_group_name_H-M  'P4mm'
_cell_length_a       3.08984
_cell_length_b       3.08984
_cell_length_c       7.40653
_cell_angle_alpha    90
_cell_angle_beta     90
_cell_angle_gamma    90

_symmetry_Int_Tables_number  99
_chemical_formula_structural  TlZnF
_chemical_formula_sum  TlZnF
_cell_volume  70.7110581407417
_cell_formula_units_Z  1
loop_
  _symmetry_equiv_pos_site_id
 _symmetry_equiv_pos_as_xyz
 1  'x, y, z'
loop_
 _atom_site_type_symbol
 _atom_site_label
 _atom_site_symmetry_multiplicity
 _atom_site_fract_x
 _atom_site_fract_y
 _atom_site_fract_z
 _atom_site_fract_occupancy
 F  F1  1  0.00000  0.00000  -0.03128  1
 Tl  Tl1  1  0.00000  0.00000  0.28874  1
 Zn  Zn1  1  0.00000  0.00000  0.71062  1
