CIF file written using JARVIS-Tools package.
data_CaGa2S4
_symmetry_space_group_name_H-M  'Cccm'
_cell_length_a       5.88239
_cell_length_b       5.88239
_cell_length_c       10.1429
_cell_angle_alpha    90
_cell_angle_beta     90
_cell_angle_gamma    118.081

_symmetry_Int_Tables_number  66
_chemical_formula_structural  CaGa2S4
_chemical_formula_sum  Ca2Ga4S8
_cell_volume  309.656606415979
_cell_formula_units_Z  2
loop_
  _symmetry_equiv_pos_site_id
 _symmetry_equiv_pos_as_xyz
 1  'x, y, z'
loop_
 _atom_site_type_symbol
 _atom_site_label
 _atom_site_symmetry_multiplicity
 _atom_site_fract_x
 _atom_site_fract_y
 _atom_site_fract_z
 _atom_site_fract_occupancy
 Ca  Ca1  1  0.50000  0.50000  0.75000  1
 Ca  Ca2  1  0.50000  0.50000  0.25000  1
 Ga  Ga1  1  0.77011  0.23399  0.50000  1
 Ga  Ga2  1  0.22989  0.76601  0.50000  1
 Ga  Ga3  1  0.76601  0.22989  0.00000  1
 Ga  Ga4  1  0.23399  0.77011  0.00000  1
 S  S1  1  0.35318  0.19621  0.50000  1
 S  S2  1  0.64682  0.80379  0.50000  1
 S  S3  1  0.80379  0.64682  0.00000  1
 S  S4  1  0.19621  0.35318  0.00000  1
 S  S5  1  0.50000  -0.00000  0.82740  1
 S  S6  1  -0.00000  0.50000  0.67260  1
 S  S7  1  0.50000  -0.00000  0.17260  1
 S  S8  1  -0.00000  0.50000  0.32740  1
