CIF file written using JARVIS-Tools package.
data_LiHO
_symmetry_space_group_name_H-M  'P4/nmm'
_cell_length_a       3.52204
_cell_length_b       3.52204
_cell_length_c       4.20115
_cell_angle_alpha    90.1032
_cell_angle_beta     90.1032
_cell_angle_gamma    89.9993

_symmetry_Int_Tables_number  129
_chemical_formula_structural  LiHO
_chemical_formula_sum  Li2H2O2
_cell_volume  52.11400209343692
_cell_formula_units_Z  2
loop_
  _symmetry_equiv_pos_site_id
 _symmetry_equiv_pos_as_xyz
 1  'x, y, z'
loop_
 _atom_site_type_symbol
 _atom_site_label
 _atom_site_symmetry_multiplicity
 _atom_site_fract_x
 _atom_site_fract_y
 _atom_site_fract_z
 _atom_site_fract_occupancy
 H  H1  1  0.25096  0.25096  0.43416  1
 H  H2  1  0.74904  0.74904  0.56584  1
 Li  Li1  1  0.24996  0.75004  -0.00000  1
 Li  Li2  1  0.75004  0.24996  -0.00000  1
 O  O1  1  0.25048  0.25048  0.20296  1
 O  O2  1  0.74952  0.74952  0.79704  1
