CIF file written using JARVIS-Tools package.
data_LiHO
_symmetry_space_group_name_H-M  'Cm'
_cell_length_a       5.09615
_cell_length_b       5.09615
_cell_length_c       2.97577
_cell_angle_alpha    95.1535
_cell_angle_beta     95.1535
_cell_angle_gamma    35.5568

_symmetry_Int_Tables_number  8
_chemical_formula_structural  LiHO
_chemical_formula_sum  Li2H2O2
_cell_volume  44.74041347864176
_cell_formula_units_Z  2
loop_
  _symmetry_equiv_pos_site_id
 _symmetry_equiv_pos_as_xyz
 1  'x, y, z'
loop_
 _atom_site_type_symbol
 _atom_site_label
 _atom_site_symmetry_multiplicity
 _atom_site_fract_x
 _atom_site_fract_y
 _atom_site_fract_z
 _atom_site_fract_occupancy
 H  H1  1  0.88608  0.88608  0.53381  1
 H  H2  1  0.06187  0.06187  0.19726  1
 Li  Li1  1  0.57829  0.57829  0.72515  1
 Li  Li2  1  0.28501  0.28501  -0.07590  1
 O  O1  1  0.90442  0.90442  0.86369  1
 O  O2  1  0.15284  0.15284  0.37843  1
