CIF file written using JARVIS-Tools package.
data_ZrIN
_symmetry_space_group_name_H-M  'Pmmn'
_cell_length_a       3.75712
_cell_length_b       4.1276
_cell_length_c       9.42343
_cell_angle_alpha    90
_cell_angle_beta     90
_cell_angle_gamma    90

_symmetry_Int_Tables_number  59
_chemical_formula_structural  ZrIN
_chemical_formula_sum  Zr2I2N2
_cell_volume  146.13775960598073
_cell_formula_units_Z  2
loop_
  _symmetry_equiv_pos_site_id
 _symmetry_equiv_pos_as_xyz
 1  'x, y, z'
loop_
 _atom_site_type_symbol
 _atom_site_label
 _atom_site_symmetry_multiplicity
 _atom_site_fract_x
 _atom_site_fract_y
 _atom_site_fract_z
 _atom_site_fract_occupancy
 I  I1  1  0.50000  0.50000  0.66439  1
 I  I2  1  0.00000  0.00000  0.33561  1
 N  N1  1  0.00000  0.00000  0.97411  1
 N  N2  1  0.50000  0.50000  0.02589  1
 Zr  Zr1  1  0.00000  0.50000  0.90938  1
 Zr  Zr2  1  0.50000  0.00000  0.09061  1
