CIF file written using JARVIS-Tools package.
data_BHC
_symmetry_space_group_name_H-M  'Pmm2'
_cell_length_a       4.53281
_cell_length_b       2.81959
_cell_length_c       3.62306
_cell_angle_alpha    90
_cell_angle_beta     90
_cell_angle_gamma    128.243

_symmetry_Int_Tables_number  25
_chemical_formula_structural  BHC
_chemical_formula_sum  BHC
_cell_volume  36.36768416828766
_cell_formula_units_Z  1
loop_
  _symmetry_equiv_pos_site_id
 _symmetry_equiv_pos_as_xyz
 1  'x, y, z'
loop_
 _atom_site_type_symbol
 _atom_site_label
 _atom_site_symmetry_multiplicity
 _atom_site_fract_x
 _atom_site_fract_y
 _atom_site_fract_z
 _atom_site_fract_occupancy
 B  B1  1  0.21086  0.20360  0.00000  1
 C  C1  1  0.14294  -0.36402  0.00000  1
 H  H1  1  -0.17202  0.32243  0.00000  1
