CIF file written using JARVIS-Tools package.
data_Li3As
_symmetry_space_group_name_H-M  'P6/mmm'
_cell_length_a       5.36896
_cell_length_b       5.36896
_cell_length_c       2.92413
_cell_angle_alpha    90
_cell_angle_beta     90
_cell_angle_gamma    120

_symmetry_Int_Tables_number  191
_chemical_formula_structural  Li3As
_chemical_formula_sum  Li3As
_cell_volume  72.99742141921618
_cell_formula_units_Z  1
loop_
  _symmetry_equiv_pos_site_id
 _symmetry_equiv_pos_as_xyz
 1  'x, y, z'
loop_
 _atom_site_type_symbol
 _atom_site_label
 _atom_site_symmetry_multiplicity
 _atom_site_fract_x
 _atom_site_fract_y
 _atom_site_fract_z
 _atom_site_fract_occupancy
 As  As1  1  0.00000  0.00000  0.00000  1
 Li  Li1  1  0.50002  0.00000  0.00000  1
 Li  Li2  1  1.00000  0.50002  0.00000  1
 Li  Li3  1  0.49998  0.49998  0.00000  1
