CIF file written using JARVIS-Tools package.
data_Li3As
_symmetry_space_group_name_H-M  'P-6m2'
_cell_length_a       4.19417
_cell_length_b       4.19417
_cell_length_c       6.0884
_cell_angle_alpha    90
_cell_angle_beta     90
_cell_angle_gamma    120

_symmetry_Int_Tables_number  187
_chemical_formula_structural  Li3As
_chemical_formula_sum  Li3As
_cell_volume  92.75262024340442
_cell_formula_units_Z  1
loop_
  _symmetry_equiv_pos_site_id
 _symmetry_equiv_pos_as_xyz
 1  'x, y, z'
loop_
 _atom_site_type_symbol
 _atom_site_label
 _atom_site_symmetry_multiplicity
 _atom_site_fract_x
 _atom_site_fract_y
 _atom_site_fract_z
 _atom_site_fract_occupancy
 As  As1  1  0.66667  0.33333  0.00000  1
 Li  Li1  1  0.33333  0.66667  0.79625  1
 Li  Li2  1  0.00000  0.00000  0.00000  1
 Li  Li3  1  0.33333  0.66667  0.20375  1
