CIF file written using JARVIS-Tools package.
data_LiH2
_symmetry_space_group_name_H-M  'Cmmm'
_cell_length_a       3.47018
_cell_length_b       4.40382
_cell_length_c       2.51494
_cell_angle_alpha    88.278
_cell_angle_beta     46.3151
_cell_angle_gamma    113.219

_symmetry_Int_Tables_number  65
_chemical_formula_structural  LiH2
_chemical_formula_sum  LiH2
_cell_volume  22.74552937677849
_cell_formula_units_Z  1
loop_
  _symmetry_equiv_pos_site_id
 _symmetry_equiv_pos_as_xyz
 1  'x, y, z'
loop_
 _atom_site_type_symbol
 _atom_site_label
 _atom_site_symmetry_multiplicity
 _atom_site_fract_x
 _atom_site_fract_y
 _atom_site_fract_z
 _atom_site_fract_occupancy
 H  H1  1  0.04255  0.46770  0.49421  1
 H  H2  1  0.32520  0.75013  0.21120  1
 Li  Li1  1  0.18382  0.10891  0.85271  1
