CIF file written using JARVIS-Tools package.
data_PtS
_symmetry_space_group_name_H-M  'P4_2/m'
_cell_length_a       6.50117
_cell_length_b       6.50117
_cell_length_c       6.67458
_cell_angle_alpha    90
_cell_angle_beta     90
_cell_angle_gamma    90

_symmetry_Int_Tables_number  84
_chemical_formula_structural  PtS
_chemical_formula_sum  Pt8S8
_cell_volume  282.1026650074751
_cell_formula_units_Z  8
loop_
  _symmetry_equiv_pos_site_id
 _symmetry_equiv_pos_as_xyz
 1  'x, y, z'
loop_
 _atom_site_type_symbol
 _atom_site_label
 _atom_site_symmetry_multiplicity
 _atom_site_fract_x
 _atom_site_fract_y
 _atom_site_fract_z
 _atom_site_fract_occupancy
 Pt  Pt1  1  0.00000  0.00000  0.25000  1
 Pt  Pt2  1  0.00000  0.00000  0.75000  1
 Pt  Pt3  1  0.00000  0.50000  0.50000  1
 Pt  Pt4  1  0.50000  0.00000  0.00000  1
 Pt  Pt5  1  0.52820  0.25615  0.50000  1
 Pt  Pt6  1  0.47180  0.74385  0.50000  1
 Pt  Pt7  1  0.25615  0.47180  0.00000  1
 Pt  Pt8  1  0.74385  0.52820  0.00000  1
 S  S1  1  0.80583  0.30682  0.27311  1
 S  S2  1  0.19417  0.69318  0.27311  1
 S  S3  1  0.30682  0.19417  0.77311  1
 S  S4  1  0.69318  0.80583  0.77311  1
 S  S5  1  0.19417  0.69318  0.72689  1
 S  S6  1  0.80583  0.30682  0.72689  1
 S  S7  1  0.69318  0.80583  0.22689  1
 S  S8  1  0.30682  0.19417  0.22689  1
