CIF file written using JARVIS-Tools package.
data_LiH
_symmetry_space_group_name_H-M  'Fm-3m'
_cell_length_a       3.9998
_cell_length_b       2.83026
_cell_length_c       3.99977
_cell_angle_alpha    45.0397
_cell_angle_beta     90.0001
_cell_angle_gamma    90.0007

_symmetry_Int_Tables_number  225
_chemical_formula_structural  LiH
_chemical_formula_sum  Li2H2
_cell_volume  32.03943393154896
_cell_formula_units_Z  2
loop_
  _symmetry_equiv_pos_site_id
 _symmetry_equiv_pos_as_xyz
 1  'x, y, z'
loop_
 _atom_site_type_symbol
 _atom_site_label
 _atom_site_symmetry_multiplicity
 _atom_site_fract_x
 _atom_site_fract_y
 _atom_site_fract_z
 _atom_site_fract_occupancy
 H  H1  1  0.99586  -0.03140  0.37181  1
 H  H2  1  0.49586  -0.03153  0.87191  1
 Li  Li1  1  0.99580  0.96859  0.87187  1
 Li  Li2  1  0.49579  0.96860  0.37185  1
