CIF file written using JARVIS-Tools package.
data_LiH
_symmetry_space_group_name_H-M  'F-43m'
_cell_length_a       3.02828
_cell_length_b       3.02773
_cell_length_c       3.02826
_cell_angle_alpha    59.9938
_cell_angle_beta     90.0085
_cell_angle_gamma    119.996

_symmetry_Int_Tables_number  216
_chemical_formula_structural  LiH
_chemical_formula_sum  LiH
_cell_volume  19.63400210628155
_cell_formula_units_Z  1
loop_
  _symmetry_equiv_pos_site_id
 _symmetry_equiv_pos_as_xyz
 1  'x, y, z'
loop_
 _atom_site_type_symbol
 _atom_site_label
 _atom_site_symmetry_multiplicity
 _atom_site_fract_x
 _atom_site_fract_y
 _atom_site_fract_z
 _atom_site_fract_occupancy
 H  H1  1  0.37749  0.54576  0.04808  1
 Li  Li1  1  0.12747  0.04579  0.79799  1
