CIF file written using JARVIS-Tools package.
data_AlIn2N3
_symmetry_space_group_name_H-M  'Cmc2_1'
_cell_length_a       5.92741
_cell_length_b       5.91413
_cell_length_c       5.49948
_cell_angle_alpha    90
_cell_angle_beta     90
_cell_angle_gamma    119.926

_symmetry_Int_Tables_number  36
_chemical_formula_structural  AlIn2N3
_chemical_formula_sum  Al2In4N6
_cell_volume  167.0829454370187
_cell_formula_units_Z  2
loop_
  _symmetry_equiv_pos_site_id
 _symmetry_equiv_pos_as_xyz
 1  'x, y, z'
loop_
 _atom_site_type_symbol
 _atom_site_label
 _atom_site_symmetry_multiplicity
 _atom_site_fract_x
 _atom_site_fract_y
 _atom_site_fract_z
 _atom_site_fract_occupancy
 Al  Al1  1  -0.00000  0.65875  0.48938  1
 Al  Al2  1  0.00000  0.34125  0.98938  1
 In  In1  1  0.32384  0.33533  0.48749  1
 In  In2  1  0.67616  0.01148  0.48749  1
 In  In3  1  0.67616  0.66467  0.98749  1
 In  In4  1  0.32384  0.98852  0.98749  1
 N  N1  1  0.30200  0.33298  0.88523  1
 N  N2  1  0.69800  0.03097  0.88523  1
 N  N3  1  0.69800  0.66702  0.38523  1
 N  N4  1  0.30200  0.96903  0.38523  1
 N  N5  1  -0.00000  0.63160  0.83718  1
 N  N6  1  0.00000  0.36840  0.33718  1
