CIF file written using JARVIS-Tools package.
data_Li2H
_symmetry_space_group_name_H-M  'P4mm'
_cell_length_a       5.58742
_cell_length_b       5.58055
_cell_length_c       2.73687
_cell_angle_alpha    119.358
_cell_angle_beta     89.9808
_cell_angle_gamma    40.632

_symmetry_Int_Tables_number  99
_chemical_formula_structural  Li2H
_chemical_formula_sum  Li2H
_cell_volume  36.55044876864414
_cell_formula_units_Z  1
loop_
  _symmetry_equiv_pos_site_id
 _symmetry_equiv_pos_as_xyz
 1  'x, y, z'
loop_
 _atom_site_type_symbol
 _atom_site_label
 _atom_site_symmetry_multiplicity
 _atom_site_fract_x
 _atom_site_fract_y
 _atom_site_fract_z
 _atom_site_fract_occupancy
 H  H1  1  0.03848  0.93142  0.09825  1
 Li  Li1  1  0.03840  0.54765  0.71427  1
 Li  Li2  1  0.53837  0.52277  0.18954  1
