CIF file written using JARVIS-Tools package.
data_LiH
_symmetry_space_group_name_H-M  'F-43m'
_cell_length_a       5.24672
_cell_length_b       4.28327
_cell_length_c       3.0274
_cell_angle_alpha    135.028
_cell_angle_beta     54.7597
_cell_angle_gamma    114.086

_symmetry_Int_Tables_number  216
_chemical_formula_structural  LiH
_chemical_formula_sum  Li2H2
_cell_volume  39.27257970005889
_cell_formula_units_Z  2
loop_
  _symmetry_equiv_pos_site_id
 _symmetry_equiv_pos_as_xyz
 1  'x, y, z'
loop_
 _atom_site_type_symbol
 _atom_site_label
 _atom_site_symmetry_multiplicity
 _atom_site_fract_x
 _atom_site_fract_y
 _atom_site_fract_z
 _atom_site_fract_occupancy
 H  H1  1  0.30328  0.04153  0.13387  1
 H  H2  1  0.80329  0.54159  0.63393  1
 Li  Li1  1  0.05329  0.04151  0.88388  1
 Li  Li2  1  0.55332  0.54145  0.38376  1
