CIF file written using JARVIS-Tools package.
data_AsRuS
_symmetry_space_group_name_H-M  'P2_1/c'
_cell_length_a       5.96426
_cell_length_b       5.98406
_cell_length_c       6.02845
_cell_angle_alpha    68.5812
_cell_angle_beta     90
_cell_angle_gamma    90

_symmetry_Int_Tables_number  14
_chemical_formula_structural  AsRuS
_chemical_formula_sum  As4Ru4S4
_cell_volume  200.2984703561381
_cell_formula_units_Z  4
loop_
  _symmetry_equiv_pos_site_id
 _symmetry_equiv_pos_as_xyz
 1  'x, y, z'
loop_
 _atom_site_type_symbol
 _atom_site_label
 _atom_site_symmetry_multiplicity
 _atom_site_fract_x
 _atom_site_fract_y
 _atom_site_fract_z
 _atom_site_fract_occupancy
 As  As1  1  0.87192  0.64893  0.62760  1
 As  As2  1  0.12808  0.35107  0.37240  1
 As  As3  1  0.37192  0.35107  0.87240  1
 As  As4  1  0.62808  0.64893  0.12760  1
 Ru  Ru1  1  0.49464  0.78426  0.70350  1
 Ru  Ru2  1  0.50536  0.21574  0.29650  1
 Ru  Ru3  1  0.99464  0.21574  0.79650  1
 Ru  Ru4  1  0.00536  0.78426  0.20350  1
 S  S1  1  0.12716  0.84313  0.81551  1
 S  S2  1  0.87284  0.15687  0.18449  1
 S  S3  1  0.62716  0.15687  0.68449  1
 S  S4  1  0.37284  0.84313  0.31551  1
