CIF file written using JARVIS-Tools package.
data_NaPO3
_symmetry_space_group_name_H-M  'R3m'
_cell_length_a       4.24531
_cell_length_b       4.24531
_cell_length_c       4.24532
_cell_angle_alpha    80.7015
_cell_angle_beta     80.7015
_cell_angle_gamma    80.7014

_symmetry_Int_Tables_number  160
_chemical_formula_structural  NaPO3
_chemical_formula_sum  NaPO3
_cell_volume  73.78996395104642
_cell_formula_units_Z  1
loop_
  _symmetry_equiv_pos_site_id
 _symmetry_equiv_pos_as_xyz
 1  'x, y, z'
loop_
 _atom_site_type_symbol
 _atom_site_label
 _atom_site_symmetry_multiplicity
 _atom_site_fract_x
 _atom_site_fract_y
 _atom_site_fract_z
 _atom_site_fract_occupancy
 Na  Na1  1  0.00506  0.00506  0.00506  1
 O  O1  1  0.58904  0.11741  0.58904  1
 O  O2  1  0.58904  0.58904  0.11741  1
 O  O3  1  0.11741  0.58904  0.58904  1
 P  P1  1  0.43345  0.43345  0.43345  1
