CIF file written using JARVIS-Tools package.
data_Zr2TiPb3O9
_symmetry_space_group_name_H-M  'Cm'
_cell_length_a       9.14759
_cell_length_b       9.14758
_cell_length_c       4.22973
_cell_angle_alpha    89.7782
_cell_angle_beta     89.778
_cell_angle_gamma    143.129

_symmetry_Int_Tables_number  8
_chemical_formula_structural  Zr2TiPb3O9
_chemical_formula_sum  Zr2TiPb3O9
_cell_volume  212.3538311253748
_cell_formula_units_Z  1
loop_
  _symmetry_equiv_pos_site_id
 _symmetry_equiv_pos_as_xyz
 1  'x, y, z'
loop_
 _atom_site_type_symbol
 _atom_site_label
 _atom_site_symmetry_multiplicity
 _atom_site_fract_x
 _atom_site_fract_y
 _atom_site_fract_z
 _atom_site_fract_occupancy
 O  O1  1  0.32867  0.16950  0.97236  1
 O  O2  1  0.69129  0.85005  0.97215  1
 O  O3  1  0.99877  0.48660  0.97878  1
 O  O4  1  0.48660  0.99877  0.97878  1
 O  O5  1  0.85005  0.69129  0.97215  1
 O  O6  1  0.16950  0.32867  0.97236  1
 O  O7  1  0.65229  0.33283  0.50623  1
 O  O8  1  0.00915  0.00915  0.47617  1
 O  O9  1  0.33283  0.65229  0.50623  1
 Pb  Pb1  1  0.20580  0.89012  0.58458  1
 Pb  Pb2  1  0.53585  0.53585  0.59353  1
 Pb  Pb3  1  0.89012  0.20580  0.58458  1
 Ti  Ti1  1  0.01796  0.01796  0.05147  1
 Zr  Zr1  1  0.35498  0.68651  0.03049  1
 Zr  Zr2  1  0.68651  0.35498  0.03049  1
