CIF file written using JARVIS-Tools package.
data_BeCdSb
_symmetry_space_group_name_H-M  'Pmm2'
_cell_length_a       5.82334
_cell_length_b       4.14808
_cell_length_c       3.1909
_cell_angle_alpha    90
_cell_angle_beta     90
_cell_angle_gamma    90.0154

_symmetry_Int_Tables_number  25
_chemical_formula_structural  BeCdSb
_chemical_formula_sum  BeCdSb
_cell_volume  77.07827717532328
_cell_formula_units_Z  1
loop_
  _symmetry_equiv_pos_site_id
 _symmetry_equiv_pos_as_xyz
 1  'x, y, z'
loop_
 _atom_site_type_symbol
 _atom_site_label
 _atom_site_symmetry_multiplicity
 _atom_site_fract_x
 _atom_site_fract_y
 _atom_site_fract_z
 _atom_site_fract_occupancy
 Be  Be1  1  -0.15728  -0.07759  0.00000  1
 Cd  Cd1  1  0.43226  -0.07667  0.00000  1
 Sb  Sb1  1  0.04217  0.42251  0.00000  1
