CIF file written using JARVIS-Tools package.
data_PbSeO
_symmetry_space_group_name_H-M  'Pm'
_cell_length_a       4.86718
_cell_length_b       6.36296
_cell_length_c       3.12905
_cell_angle_alpha    90
_cell_angle_beta     90
_cell_angle_gamma    134.423

_symmetry_Int_Tables_number  6
_chemical_formula_structural  PbSeO
_chemical_formula_sum  PbSeO
_cell_volume  69.20967290408987
_cell_formula_units_Z  1
loop_
  _symmetry_equiv_pos_site_id
 _symmetry_equiv_pos_as_xyz
 1  'x, y, z'
loop_
 _atom_site_type_symbol
 _atom_site_label
 _atom_site_symmetry_multiplicity
 _atom_site_fract_x
 _atom_site_fract_y
 _atom_site_fract_z
 _atom_site_fract_occupancy
 O  O1  1  0.26800  0.07382  0.00000  1
 Pb  Pb1  1  -0.10790  0.23826  0.00000  1
 Se  Se1  1  0.83990  0.68792  0.00000  1
