CIF file written using JARVIS-Tools package.
data_BeInPt
_symmetry_space_group_name_H-M  'P4mm'
_cell_length_a       2.80854
_cell_length_b       2.80854
_cell_length_c       7.36259
_cell_angle_alpha    90
_cell_angle_beta     90
_cell_angle_gamma    90

_symmetry_Int_Tables_number  99
_chemical_formula_structural  BeInPt
_chemical_formula_sum  BeInPt
_cell_volume  58.07532957099643
_cell_formula_units_Z  1
loop_
  _symmetry_equiv_pos_site_id
 _symmetry_equiv_pos_as_xyz
 1  'x, y, z'
loop_
 _atom_site_type_symbol
 _atom_site_label
 _atom_site_symmetry_multiplicity
 _atom_site_fract_x
 _atom_site_fract_y
 _atom_site_fract_z
 _atom_site_fract_occupancy
 Be  Be1  1  0.00000  0.00000  0.29708  1
 In  In1  1  0.00000  0.00000  0.63783  1
 Pt  Pt1  1  0.00000  0.00000  0.01633  1
