CIF file written using JARVIS-Tools package.
data_AsNO4
_symmetry_space_group_name_H-M  'I-4'
_cell_length_a       4.43792
_cell_length_b       4.43792
_cell_length_c       4.43792
_cell_angle_alpha    109.864
_cell_angle_beta     109.864
_cell_angle_gamma    108.688

_symmetry_Int_Tables_number  82
_chemical_formula_structural  AsNO4
_chemical_formula_sum  AsNO4
_cell_volume  67.27567124608946
_cell_formula_units_Z  1
loop_
  _symmetry_equiv_pos_site_id
 _symmetry_equiv_pos_as_xyz
 1  'x, y, z'
loop_
 _atom_site_type_symbol
 _atom_site_label
 _atom_site_symmetry_multiplicity
 _atom_site_fract_x
 _atom_site_fract_y
 _atom_site_fract_z
 _atom_site_fract_occupancy
 As  As1  1  0.00000  0.00000  0.00000  1
 N  N1  1  0.25000  0.75000  0.50000  1
 O  O1  1  0.53604  0.71478  0.45459  1
 O  O2  1  0.26019  0.08145  0.54540  1
 O  O3  1  0.28522  0.73981  0.82126  1
 O  O4  1  0.91855  0.46396  0.17874  1
