CIF file written using JARVIS-Tools package.
data_DyCu3S3
_symmetry_space_group_name_H-M  'R-3'
_cell_length_a       7.43028
_cell_length_b       7.43028
_cell_length_c       7.43028
_cell_angle_alpha    53.4916
_cell_angle_beta     53.4915
_cell_angle_gamma    53.4915

_symmetry_Int_Tables_number  148
_chemical_formula_structural  DyCu3S3
_chemical_formula_sum  Dy2Cu6S6
_cell_volume  245.89213687230202
_cell_formula_units_Z  2
loop_
  _symmetry_equiv_pos_site_id
 _symmetry_equiv_pos_as_xyz
 1  'x, y, z'
loop_
 _atom_site_type_symbol
 _atom_site_label
 _atom_site_symmetry_multiplicity
 _atom_site_fract_x
 _atom_site_fract_y
 _atom_site_fract_z
 _atom_site_fract_occupancy
 Cu  Cu1  1  0.96529  0.62285  0.28009  1
 Cu  Cu2  1  0.28009  0.96529  0.62285  1
 Cu  Cu3  1  0.62285  0.28009  0.96529  1
 Cu  Cu4  1  0.37715  0.71991  0.03471  1
 Cu  Cu5  1  0.71991  0.03471  0.37715  1
 Cu  Cu6  1  0.03471  0.37715  0.71991  1
 Dy  Dy1  1  0.83351  0.83351  0.83351  1
 Dy  Dy2  1  0.16649  0.16649  0.16649  1
 S  S1  1  0.74619  0.41808  0.08745  1
 S  S2  1  0.41808  0.08745  0.74619  1
 S  S3  1  0.08745  0.74619  0.41808  1
 S  S4  1  0.91255  0.25381  0.58192  1
 S  S5  1  0.58192  0.91255  0.25381  1
 S  S6  1  0.25381  0.58192  0.91255  1
