CIF file written using JARVIS-Tools package.
data_Dy2MgSe4
_symmetry_space_group_name_H-M  'I-42d'
_cell_length_a       7.5114
_cell_length_b       7.5114
_cell_length_c       7.51141
_cell_angle_alpha    110.778
_cell_angle_beta     110.778
_cell_angle_gamma    106.888

_symmetry_Int_Tables_number  122
_chemical_formula_structural  Dy2MgSe4
_chemical_formula_sum  Dy4Mg2Se8
_cell_volume  325.74879691543003
_cell_formula_units_Z  2
loop_
  _symmetry_equiv_pos_site_id
 _symmetry_equiv_pos_as_xyz
 1  'x, y, z'
loop_
 _atom_site_type_symbol
 _atom_site_label
 _atom_site_symmetry_multiplicity
 _atom_site_fract_x
 _atom_site_fract_y
 _atom_site_fract_z
 _atom_site_fract_occupancy
 Dy  Dy1  1  0.87500  0.74964  0.37464  1
 Dy  Dy2  1  0.49964  0.12500  0.87464  1
 Dy  Dy3  1  0.37500  0.50036  0.62536  1
 Dy  Dy4  1  0.25036  0.62500  0.12536  1
 Mg  Mg1  1  0.00000  0.00000  0.00000  1
 Mg  Mg2  1  0.75000  0.25000  0.50000  1
 Se  Se1  1  0.50826  0.37812  0.26194  1
 Se  Se2  1  0.75367  0.49174  0.86985  1
 Se  Se3  1  0.11618  0.24633  0.73806  1
 Se  Se4  1  0.62188  0.88382  0.13015  1
 Se  Se5  1  0.24174  0.00367  0.36985  1
 Se  Se6  1  0.99633  0.36618  0.23806  1
 Se  Se7  1  0.63382  0.87188  0.63015  1
 Se  Se8  1  0.12812  0.75826  0.76194  1
