CIF file written using JARVIS-Tools package.
data_AgPO4
_symmetry_space_group_name_H-M  'I-4'
_cell_length_a       4.679
_cell_length_b       4.679
_cell_length_c       4.679
_cell_angle_alpha    103.905
_cell_angle_beta     103.905
_cell_angle_gamma    121.291

_symmetry_Int_Tables_number  82
_chemical_formula_structural  AgPO4
_chemical_formula_sum  AgPO4
_cell_volume  76.29764496600993
_cell_formula_units_Z  1
loop_
  _symmetry_equiv_pos_site_id
 _symmetry_equiv_pos_as_xyz
 1  'x, y, z'
loop_
 _atom_site_type_symbol
 _atom_site_label
 _atom_site_symmetry_multiplicity
 _atom_site_fract_x
 _atom_site_fract_y
 _atom_site_fract_z
 _atom_site_fract_occupancy
 Ag  Ag1  1  0.00000  0.00000  0.00000  1
 O  O1  1  0.26794  0.81122  0.19047  1
 O  O2  1  0.62075  0.07747  0.80953  1
 O  O3  1  0.18878  0.37925  0.45671  1
 O  O4  1  -0.07747  0.73206  0.54329  1
 P  P1  1  0.25000  0.75000  0.50000  1
