CIF file written using JARVIS-Tools package.
data_LiAlB
_symmetry_space_group_name_H-M  'Pmmm'
_cell_length_a       3.98606
_cell_length_b       6.00679
_cell_length_c       2.98951
_cell_angle_alpha    90
_cell_angle_beta     90
_cell_angle_gamma    48.495

_symmetry_Int_Tables_number  47
_chemical_formula_structural  LiAlB
_chemical_formula_sum  LiAlB
_cell_volume  53.60549476466175
_cell_formula_units_Z  1
loop_
  _symmetry_equiv_pos_site_id
 _symmetry_equiv_pos_as_xyz
 1  'x, y, z'
loop_
 _atom_site_type_symbol
 _atom_site_label
 _atom_site_symmetry_multiplicity
 _atom_site_fract_x
 _atom_site_fract_y
 _atom_site_fract_z
 _atom_site_fract_occupancy
 Al  Al1  1  -0.07748  -0.07604  0.00000  1
 B  B1  1  0.42243  -0.07596  0.00000  1
 Li  Li1  1  -0.07757  0.42403  0.00000  1
