CIF file written using JARVIS-Tools package.
data_TaSiNi
_symmetry_space_group_name_H-M  'Pnma'
_cell_length_a       3.68721
_cell_length_b       6.22555
_cell_length_c       7.07553
_cell_angle_alpha    90
_cell_angle_beta     90
_cell_angle_gamma    90

_symmetry_Int_Tables_number  62
_chemical_formula_structural  TaSiNi
_chemical_formula_sum  Ta4Si4Ni4
_cell_volume  162.41829778475528
_cell_formula_units_Z  4
loop_
  _symmetry_equiv_pos_site_id
 _symmetry_equiv_pos_as_xyz
 1  'x, y, z'
loop_
 _atom_site_type_symbol
 _atom_site_label
 _atom_site_symmetry_multiplicity
 _atom_site_fract_x
 _atom_site_fract_y
 _atom_site_fract_z
 _atom_site_fract_occupancy
 Ni  Ni1  1  0.25000  0.65581  0.57022  1
 Ni  Ni2  1  0.75000  0.34419  0.42978  1
 Ni  Ni3  1  0.75000  0.84419  0.07022  1
 Ni  Ni4  1  0.25000  0.15581  0.92978  1
 Si  Si1  1  0.25000  0.78213  0.88392  1
 Si  Si2  1  0.75000  0.21787  0.11608  1
 Si  Si3  1  0.75000  0.71787  0.38392  1
 Si  Si4  1  0.25000  0.28213  0.61608  1
 Ta  Ta1  1  0.25000  0.51760  0.17502  1
 Ta  Ta2  1  0.75000  0.48240  0.82498  1
 Ta  Ta3  1  0.75000  0.98240  0.67502  1
 Ta  Ta4  1  0.25000  0.01760  0.32498  1
