CIF file written using JARVIS-Tools package.
data_GaI3
_symmetry_space_group_name_H-M  'C2'
_cell_length_a       7.35966
_cell_length_b       6.03355
_cell_length_c       4.16579
_cell_angle_alpha    89.9554
_cell_angle_beta     73.7873
_cell_angle_gamma    114.125

_symmetry_Int_Tables_number  5
_chemical_formula_structural  GaI3
_chemical_formula_sum  GaI3
_cell_volume  160.71097780887428
_cell_formula_units_Z  1
loop_
  _symmetry_equiv_pos_site_id
 _symmetry_equiv_pos_as_xyz
 1  'x, y, z'
loop_
 _atom_site_type_symbol
 _atom_site_label
 _atom_site_symmetry_multiplicity
 _atom_site_fract_x
 _atom_site_fract_y
 _atom_site_fract_z
 _atom_site_fract_occupancy
 Ga  Ga1  1  0.57463  0.56800  0.11612  1
 I  I1  1  0.91264  0.95269  -0.05169  1
 I  I2  1  0.23627  0.61455  0.28386  1
 I  I3  1  0.57485  0.27463  0.61628  1
