CIF file written using JARVIS-Tools package.
data_NaGeO
_symmetry_space_group_name_H-M  'P4mm'
_cell_length_a       3.37565
_cell_length_b       3.37565
_cell_length_c       6.54644
_cell_angle_alpha    90
_cell_angle_beta     90
_cell_angle_gamma    90

_symmetry_Int_Tables_number  99
_chemical_formula_structural  NaGeO
_chemical_formula_sum  NaGeO
_cell_volume  74.59680486068734
_cell_formula_units_Z  1
loop_
  _symmetry_equiv_pos_site_id
 _symmetry_equiv_pos_as_xyz
 1  'x, y, z'
loop_
 _atom_site_type_symbol
 _atom_site_label
 _atom_site_symmetry_multiplicity
 _atom_site_fract_x
 _atom_site_fract_y
 _atom_site_fract_z
 _atom_site_fract_occupancy
 Ge  Ge1  1  0.00000  0.00000  0.26223  1
 Na  Na1  1  0.00000  0.00000  0.69064  1
 O  O1  1  0.00000  0.00000  0.00415  1
