CIF file written using JARVIS-Tools package.
data_ZnGeS2
_symmetry_space_group_name_H-M  'P4mm'
_cell_length_a       3.71493
_cell_length_b       3.71493
_cell_length_c       5.3746
_cell_angle_alpha    90
_cell_angle_beta     90
_cell_angle_gamma    90

_symmetry_Int_Tables_number  99
_chemical_formula_structural  ZnGeS2
_chemical_formula_sum  ZnGeS2
_cell_volume  74.17323838329527
_cell_formula_units_Z  1
loop_
  _symmetry_equiv_pos_site_id
 _symmetry_equiv_pos_as_xyz
 1  'x, y, z'
loop_
 _atom_site_type_symbol
 _atom_site_label
 _atom_site_symmetry_multiplicity
 _atom_site_fract_x
 _atom_site_fract_y
 _atom_site_fract_z
 _atom_site_fract_occupancy
 Ge  Ge1  1  0.00000  0.00000  0.01673  1
 S  S1  1  0.00000  0.00000  0.47540  1
 S  S2  1  0.50000  0.50000  0.98764  1
 Zn  Zn1  1  0.50000  0.50000  0.53022  1
