CIF file written using JARVIS-Tools package.
data_MgPH
_symmetry_space_group_name_H-M  'I4mm'
_cell_length_a       4.29542
_cell_length_b       4.29542
_cell_length_c       4.29542
_cell_angle_alpha    127.847
_cell_angle_beta     127.847
_cell_angle_gamma    76.8735

_symmetry_Int_Tables_number  107
_chemical_formula_structural  MgPH
_chemical_formula_sum  MgPH
_cell_volume  47.980309785327904
_cell_formula_units_Z  1
loop_
  _symmetry_equiv_pos_site_id
 _symmetry_equiv_pos_as_xyz
 1  'x, y, z'
loop_
 _atom_site_type_symbol
 _atom_site_label
 _atom_site_symmetry_multiplicity
 _atom_site_fract_x
 _atom_site_fract_y
 _atom_site_fract_z
 _atom_site_fract_occupancy
 H  H1  1  0.31309  0.31309  0.00000  1
 Mg  Mg1  1  0.01114  0.01114  0.00000  1
 P  P1  1  0.52577  0.52577  -0.00000  1
