CIF file written using JARVIS-Tools package.
data_AlGaN
_symmetry_space_group_name_H-M  'Pm'
_cell_length_a       5.80697
_cell_length_b       5.00079
_cell_length_c       3.44257
_cell_angle_alpha    90
_cell_angle_beta     90
_cell_angle_gamma    148.135

_symmetry_Int_Tables_number  6
_chemical_formula_structural  AlGaN
_chemical_formula_sum  AlGaN
_cell_volume  52.77633583043634
_cell_formula_units_Z  1
loop_
  _symmetry_equiv_pos_site_id
 _symmetry_equiv_pos_as_xyz
 1  'x, y, z'
loop_
 _atom_site_type_symbol
 _atom_site_label
 _atom_site_symmetry_multiplicity
 _atom_site_fract_x
 _atom_site_fract_y
 _atom_site_fract_z
 _atom_site_fract_occupancy
 Al  Al1  1  0.33715  0.08406  0.00000  1
 Ga  Ga1  1  0.83256  0.14566  0.00000  1
 N  N1  1  0.83029  0.77028  0.00000  1
