CIF file written using JARVIS-Tools package.
data_Mg2SiO4
_symmetry_space_group_name_H-M  'I-42d'
_cell_length_a       5.91663
_cell_length_b       5.91663
_cell_length_c       5.91664
_cell_angle_alpha    107.759
_cell_angle_beta     107.759
_cell_angle_gamma    112.953

_symmetry_Int_Tables_number  122
_chemical_formula_structural  Mg2SiO4
_chemical_formula_sum  Mg4Si2O8
_cell_volume  158.99750691940835
_cell_formula_units_Z  2
loop_
  _symmetry_equiv_pos_site_id
 _symmetry_equiv_pos_as_xyz
 1  'x, y, z'
loop_
 _atom_site_type_symbol
 _atom_site_label
 _atom_site_symmetry_multiplicity
 _atom_site_fract_x
 _atom_site_fract_y
 _atom_site_fract_z
 _atom_site_fract_occupancy
 Mg  Mg1  1  0.12500  0.70174  0.07674  1
 Mg  Mg2  1  0.62500  0.04826  0.92326  1
 Mg  Mg3  1  0.29826  0.37500  0.42326  1
 Mg  Mg4  1  0.95174  0.87500  0.57674  1
 O  O1  1  0.43916  0.64335  0.80743  1
 O  O2  1  0.81084  0.11827  0.70419  1
 O  O3  1  0.83592  0.63173  0.19257  1
 O  O4  1  0.41408  0.10665  0.29581  1
 O  O5  1  0.35665  0.16408  0.79581  1
 O  O6  1  0.89335  0.18916  0.30743  1
 O  O7  1  0.36827  0.56084  0.20419  1
 O  O8  1  0.88173  0.58592  0.69257  1
 Si  Si1  1  0.75000  0.25000  0.50000  1
 Si  Si2  1  0.50000  0.50000  -0.00000  1
