CIF file written using JARVIS-Tools package.
data_K2Te
_symmetry_space_group_name_H-M  'P4/mmm'
_cell_length_a       7.07905
_cell_length_b       4.51827
_cell_length_c       7.07161
_cell_angle_alpha    129.486
_cell_angle_beta     66.2416
_cell_angle_gamma    129.496

_symmetry_Int_Tables_number  123
_chemical_formula_structural  K2Te
_chemical_formula_sum  K2Te
_cell_volume  134.70628160564507
_cell_formula_units_Z  1
loop_
  _symmetry_equiv_pos_site_id
 _symmetry_equiv_pos_as_xyz
 1  'x, y, z'
loop_
 _atom_site_type_symbol
 _atom_site_label
 _atom_site_symmetry_multiplicity
 _atom_site_fract_x
 _atom_site_fract_y
 _atom_site_fract_z
 _atom_site_fract_occupancy
 K  K1  1  0.20325  0.16675  0.30621  1
 K  K2  1  0.70304  0.16648  0.80617  1
 Te  Te1  1  0.70333  0.16676  0.30615  1
