CIF file written using JARVIS-Tools package.
data_LiB3
_symmetry_space_group_name_H-M  'I-4m2'
_cell_length_a       3.14849
_cell_length_b       3.90929
_cell_length_c       3.14863
_cell_angle_alpha    113.729
_cell_angle_beta     90.0091
_cell_angle_gamma    66.278

_symmetry_Int_Tables_number  119
_chemical_formula_structural  LiB3
_chemical_formula_sum  LiB3
_cell_volume  31.870111988055204
_cell_formula_units_Z  1
loop_
  _symmetry_equiv_pos_site_id
 _symmetry_equiv_pos_as_xyz
 1  'x, y, z'
loop_
 _atom_site_type_symbol
 _atom_site_label
 _atom_site_symmetry_multiplicity
 _atom_site_fract_x
 _atom_site_fract_y
 _atom_site_fract_z
 _atom_site_fract_occupancy
 B  B1  1  0.59606  0.74393  0.37437  1
 B  B2  1  0.33304  0.26996  0.63736  1
 B  B3  1  0.71473  0.50689  0.75591  1
 Li  Li1  1  0.96471  0.00692  0.00595  1
