CIF file written using JARVIS-Tools package.
data_LiSnP
_symmetry_space_group_name_H-M  'Pm'
_cell_length_a       6.02615
_cell_length_b       3.85119
_cell_length_c       3.12695
_cell_angle_alpha    90
_cell_angle_beta     90
_cell_angle_gamma    90.4285

_symmetry_Int_Tables_number  6
_chemical_formula_structural  LiSnP
_chemical_formula_sum  LiSnP
_cell_volume  72.56795027147434
_cell_formula_units_Z  1
loop_
  _symmetry_equiv_pos_site_id
 _symmetry_equiv_pos_as_xyz
 1  'x, y, z'
loop_
 _atom_site_type_symbol
 _atom_site_label
 _atom_site_symmetry_multiplicity
 _atom_site_fract_x
 _atom_site_fract_y
 _atom_site_fract_z
 _atom_site_fract_occupancy
 Li  Li1  1  0.26388  -0.16374  0.00000  1
 P  P1  1  0.01549  0.33363  0.00000  1
 Sn  Sn1  1  0.72063  0.83010  0.00000  1
