CIF file written using JARVIS-Tools package.
data_Mg2O
_symmetry_space_group_name_H-M  'Pmmm'
_cell_length_a       2.93058
_cell_length_b       3.52469
_cell_length_c       5.54212
_cell_angle_alpha    90
_cell_angle_beta     90
_cell_angle_gamma    90

_symmetry_Int_Tables_number  47
_chemical_formula_structural  Mg2O
_chemical_formula_sum  Mg2O
_cell_volume  57.24668844025055
_cell_formula_units_Z  1
loop_
  _symmetry_equiv_pos_site_id
 _symmetry_equiv_pos_as_xyz
 1  'x, y, z'
loop_
 _atom_site_type_symbol
 _atom_site_label
 _atom_site_symmetry_multiplicity
 _atom_site_fract_x
 _atom_site_fract_y
 _atom_site_fract_z
 _atom_site_fract_occupancy
 Mg  Mg1  1  -0.03333  0.00000  0.75407  1
 Mg  Mg2  1  -0.03333  0.00000  0.24593  1
 O  O1  1  0.46666  0.00000  0.00000  1
