CIF file written using JARVIS-Tools package.
data_BAsO4
_symmetry_space_group_name_H-M  'I222'
_cell_length_a       4.56248
_cell_length_b       4.56248
_cell_length_c       4.56248
_cell_angle_alpha    119.724
_cell_angle_beta     107.942
_cell_angle_gamma    101.31

_symmetry_Int_Tables_number  23
_chemical_formula_structural  BAsO4
_chemical_formula_sum  BAsO4
_cell_volume  71.12795586325839
_cell_formula_units_Z  1
loop_
  _symmetry_equiv_pos_site_id
 _symmetry_equiv_pos_as_xyz
 1  'x, y, z'
loop_
 _atom_site_type_symbol
 _atom_site_label
 _atom_site_symmetry_multiplicity
 _atom_site_fract_x
 _atom_site_fract_y
 _atom_site_fract_z
 _atom_site_fract_occupancy
 As  As1  1  0.00000  0.00000  0.00000  1
 B  B1  1  0.00000  0.50000  0.50000  1
 O  O1  1  0.70705  0.57311  0.55848  1
 O  O2  1  0.29296  0.85143  0.86607  1
 O  O3  1  0.98537  0.42689  0.13393  1
 O  O4  1  0.01463  0.14857  0.44152  1
