CIF file written using JARVIS-Tools package.
data_NaAsSe
_symmetry_space_group_name_H-M  'P4mm'
_cell_length_a       2.84139
_cell_length_b       2.84139
_cell_length_c       8.81059
_cell_angle_alpha    90
_cell_angle_beta     90
_cell_angle_gamma    90

_symmetry_Int_Tables_number  99
_chemical_formula_structural  NaAsSe
_chemical_formula_sum  NaAsSe
_cell_volume  71.13234730742886
_cell_formula_units_Z  1
loop_
  _symmetry_equiv_pos_site_id
 _symmetry_equiv_pos_as_xyz
 1  'x, y, z'
loop_
 _atom_site_type_symbol
 _atom_site_label
 _atom_site_symmetry_multiplicity
 _atom_site_fract_x
 _atom_site_fract_y
 _atom_site_fract_z
 _atom_site_fract_occupancy
 As  As1  1  0.00000  0.00000  0.33308  1
 Na  Na1  1  0.00000  0.00000  0.65231  1
 Se  Se1  1  0.00000  0.00000  -0.03312  1
