CIF file written using JARVIS-Tools package.
data_NaAsSe
_symmetry_space_group_name_H-M  'Pmm2'
_cell_length_a       4.88445
_cell_length_b       5.74849
_cell_length_c       2.79891
_cell_angle_alpha    90
_cell_angle_beta     90
_cell_angle_gamma    89.9722

_symmetry_Int_Tables_number  25
_chemical_formula_structural  NaAsSe
_chemical_formula_sum  NaAsSe
_cell_volume  78.58829989732509
_cell_formula_units_Z  1
loop_
  _symmetry_equiv_pos_site_id
 _symmetry_equiv_pos_as_xyz
 1  'x, y, z'
loop_
 _atom_site_type_symbol
 _atom_site_label
 _atom_site_symmetry_multiplicity
 _atom_site_fract_x
 _atom_site_fract_y
 _atom_site_fract_z
 _atom_site_fract_occupancy
 As  As1  1  -0.07584  -0.18732  0.00000  1
 Na  Na1  1  0.42402  0.09237  0.00000  1
 Se  Se1  1  -0.07615  0.36697  0.00000  1
