CIF file written using JARVIS-Tools package.
data_Au3S
_symmetry_space_group_name_H-M  'Pm'
_cell_length_a       4.94225
_cell_length_b       2.87646
_cell_length_c       7.4048
_cell_angle_alpha    67.1978
_cell_angle_beta     76.5816
_cell_angle_gamma    54.4865

_symmetry_Int_Tables_number  6
_chemical_formula_structural  Au3S
_chemical_formula_sum  Au3S
_cell_volume  78.98619993979878
_cell_formula_units_Z  1
loop_
  _symmetry_equiv_pos_site_id
 _symmetry_equiv_pos_as_xyz
 1  'x, y, z'
loop_
 _atom_site_type_symbol
 _atom_site_label
 _atom_site_symmetry_multiplicity
 _atom_site_fract_x
 _atom_site_fract_y
 _atom_site_fract_z
 _atom_site_fract_occupancy
 Au  Au1  1  0.90846  0.05996  0.02734  1
 Au  Au2  1  0.90273  0.62748  0.46654  1
 Au  Au3  1  0.42110  0.82849  0.24662  1
 S  S1  1  0.26516  -0.01213  0.74399  1
