CIF file written using JARVIS-Tools package.
data_BSbO4
_symmetry_space_group_name_H-M  'Cmmm'
_cell_length_a       4.08621
_cell_length_b       4.08621
_cell_length_c       3.5255
_cell_angle_alpha    90
_cell_angle_beta     90
_cell_angle_gamma    80.4091

_symmetry_Int_Tables_number  65
_chemical_formula_structural  BSbO4
_chemical_formula_sum  BSbO4
_cell_volume  58.04265574219133
_cell_formula_units_Z  1
loop_
  _symmetry_equiv_pos_site_id
 _symmetry_equiv_pos_as_xyz
 1  'x, y, z'
loop_
 _atom_site_type_symbol
 _atom_site_label
 _atom_site_symmetry_multiplicity
 _atom_site_fract_x
 _atom_site_fract_y
 _atom_site_fract_z
 _atom_site_fract_occupancy
 B  B1  1  0.50000  0.50000  0.50000  1
 O  O1  1  0.69647  0.69647  0.00000  1
 O  O2  1  0.75848  0.24152  0.50000  1
 O  O3  1  0.24152  0.75848  0.50000  1
 O  O4  1  0.30353  0.30353  0.00000  1
 Sb  Sb1  1  0.00000  0.00000  0.00000  1
