CIF file written using JARVIS-Tools package.
data_Ba2O
_symmetry_space_group_name_H-M  'P-4m2'
_cell_length_a       6.64272
_cell_length_b       4.32498
_cell_length_c       4.32484
_cell_angle_alpha    90.0022
_cell_angle_beta     90.0356
_cell_angle_gamma    89.9991

_symmetry_Int_Tables_number  115
_chemical_formula_structural  Ba2O
_chemical_formula_sum  Ba2O
_cell_volume  124.2512361915889
_cell_formula_units_Z  1
loop_
  _symmetry_equiv_pos_site_id
 _symmetry_equiv_pos_as_xyz
 1  'x, y, z'
loop_
 _atom_site_type_symbol
 _atom_site_label
 _atom_site_symmetry_multiplicity
 _atom_site_fract_x
 _atom_site_fract_y
 _atom_site_fract_z
 _atom_site_fract_occupancy
 Ba  Ba1  1  0.74653  0.04133  0.56352  1
 Ba  Ba2  1  0.16461  0.54132  0.06378  1
 O  O1  1  0.95559  0.04133  0.06367  1
