CIF file written using JARVIS-Tools package.
data_Al6CoCu3
_symmetry_space_group_name_H-M  'P3m1'
_cell_length_a       4.10469
_cell_length_b       4.1047
_cell_length_c       9.91437
_cell_angle_alpha    90
_cell_angle_beta     90
_cell_angle_gamma    120

_symmetry_Int_Tables_number  156
_chemical_formula_structural  Al6CoCu3
_chemical_formula_sum  Al6CoCu3
_cell_volume  144.6626864862668
_cell_formula_units_Z  1
loop_
  _symmetry_equiv_pos_site_id
 _symmetry_equiv_pos_as_xyz
 1  'x, y, z'
loop_
 _atom_site_type_symbol
 _atom_site_label
 _atom_site_symmetry_multiplicity
 _atom_site_fract_x
 _atom_site_fract_y
 _atom_site_fract_z
 _atom_site_fract_occupancy
 Al  Al1  1  0.66667  0.33333  0.18859  1
 Al  Al2  1  0.66667  0.33333  0.67213  1
 Al  Al3  1  0.00000  0.00000  0.32954  1
 Al  Al4  1  0.00000  0.00000  0.82302  1
 Al  Al5  1  0.33333  0.66667  0.00515  1
 Al  Al6  1  0.33333  0.66667  0.47213  1
 Co  Co1  1  0.66667  0.33333  0.42974  1
 Cu  Cu1  1  0.66667  0.33333  0.92334  1
 Cu  Cu2  1  0.00000  0.00000  0.07875  1
 Cu  Cu3  1  0.00000  0.00000  0.57760  1
