CIF file written using JARVIS-Tools package.
data_BeC
_symmetry_space_group_name_H-M  'I4/mmm'
_cell_length_a       3.09689
_cell_length_b       3.09714
_cell_length_c       4.07357
_cell_angle_alpha    112.353
_cell_angle_beta     67.6463
_cell_angle_gamma    90.0006

_symmetry_Int_Tables_number  139
_chemical_formula_structural  BeC
_chemical_formula_sum  Be2C2
_cell_volume  32.93905783410414
_cell_formula_units_Z  2
loop_
  _symmetry_equiv_pos_site_id
 _symmetry_equiv_pos_as_xyz
 1  'x, y, z'
loop_
 _atom_site_type_symbol
 _atom_site_label
 _atom_site_symmetry_multiplicity
 _atom_site_fract_x
 _atom_site_fract_y
 _atom_site_fract_z
 _atom_site_fract_occupancy
 Be  Be1  1  0.98077  0.04406  0.92429  1
 Be  Be2  1  0.48054  0.54394  0.92437  1
 C  C1  1  0.33093  0.19364  0.22353  1
 C  C2  1  0.13033  0.39428  0.62509  1
