CIF file written using JARVIS-Tools package.
data_GaBiO
_symmetry_space_group_name_H-M  'P4mm'
_cell_length_a       3.35368
_cell_length_b       3.35368
_cell_length_c       7.08486
_cell_angle_alpha    90
_cell_angle_beta     90
_cell_angle_gamma    90

_symmetry_Int_Tables_number  99
_chemical_formula_structural  GaBiO
_chemical_formula_sum  GaBiO
_cell_volume  79.68445219642318
_cell_formula_units_Z  1
loop_
  _symmetry_equiv_pos_site_id
 _symmetry_equiv_pos_as_xyz
 1  'x, y, z'
loop_
 _atom_site_type_symbol
 _atom_site_label
 _atom_site_symmetry_multiplicity
 _atom_site_fract_x
 _atom_site_fract_y
 _atom_site_fract_z
 _atom_site_fract_occupancy
 Bi  Bi1  1  0.00000  0.00000  0.29092  1
 Ga  Ga1  1  0.00000  0.00000  0.74116  1
 O  O1  1  0.00000  0.00000  -0.00858  1
