CIF file written using JARVIS-Tools package.
data_Th2SiGe
_symmetry_space_group_name_H-M  'Pmc2_1'
_cell_length_a       4.31248
_cell_length_b       5.94259
_cell_length_c       7.89899
_cell_angle_alpha    90
_cell_angle_beta     90
_cell_angle_gamma    90

_symmetry_Int_Tables_number  26
_chemical_formula_structural  Th2SiGe
_chemical_formula_sum  Th4Si2Ge2
_cell_volume  202.4296787014009
_cell_formula_units_Z  2
loop_
  _symmetry_equiv_pos_site_id
 _symmetry_equiv_pos_as_xyz
 1  'x, y, z'
loop_
 _atom_site_type_symbol
 _atom_site_label
 _atom_site_symmetry_multiplicity
 _atom_site_fract_x
 _atom_site_fract_y
 _atom_site_fract_z
 _atom_site_fract_occupancy
 Ge  Ge1  1  0.00000  0.60167  0.54236  1
 Ge  Ge2  1  0.00000  0.39833  0.04236  1
 Si  Si1  1  0.50000  0.90075  0.45648  1
 Si  Si2  1  0.50000  0.09925  0.95648  1
 Th  Th1  1  0.00000  0.11523  0.68287  1
 Th  Th2  1  0.00000  0.88477  0.18287  1
 Th  Th3  1  0.50000  0.38052  0.31829  1
 Th  Th4  1  0.50000  0.61948  0.81829  1
