CIF file written using JARVIS-Tools package.
data_NaCO
_symmetry_space_group_name_H-M  'Pm'
_cell_length_a       4.01541
_cell_length_b       5.26759
_cell_length_c       3.07653
_cell_angle_alpha    90
_cell_angle_beta     90
_cell_angle_gamma    133.157

_symmetry_Int_Tables_number  6
_chemical_formula_structural  NaCO
_chemical_formula_sum  NaCO
_cell_volume  47.470132280292496
_cell_formula_units_Z  1
loop_
  _symmetry_equiv_pos_site_id
 _symmetry_equiv_pos_as_xyz
 1  'x, y, z'
loop_
 _atom_site_type_symbol
 _atom_site_label
 _atom_site_symmetry_multiplicity
 _atom_site_fract_x
 _atom_site_fract_y
 _atom_site_fract_z
 _atom_site_fract_occupancy
 C  C1  1  0.19973  -0.06734  0.00000  1
 Na  Na1  1  0.01419  0.33776  0.00000  1
 O  O1  1  0.78609  0.72959  0.00000  1
