CIF file written using JARVIS-Tools package.
data_LiAgSb
_symmetry_space_group_name_H-M  'P-6m2'
_cell_length_a       4.85951
_cell_length_b       4.85941
_cell_length_c       3.33451
_cell_angle_alpha    90
_cell_angle_beta     90
_cell_angle_gamma    119.986

_symmetry_Int_Tables_number  187
_chemical_formula_structural  LiAgSb
_chemical_formula_sum  LiAgSb
_cell_volume  68.20271613814583
_cell_formula_units_Z  1
loop_
  _symmetry_equiv_pos_site_id
 _symmetry_equiv_pos_as_xyz
 1  'x, y, z'
loop_
 _atom_site_type_symbol
 _atom_site_label
 _atom_site_symmetry_multiplicity
 _atom_site_fract_x
 _atom_site_fract_y
 _atom_site_fract_z
 _atom_site_fract_occupancy
 Ag  Ag1  1  -0.24269  -0.22609  0.00000  1
 Li  Li1  1  0.42403  0.10723  0.00000  1
 Sb  Sb1  1  0.09069  0.44056  0.00000  1
