CIF file written using JARVIS-Tools package.
data_GeH2
_symmetry_space_group_name_H-M  'Pmm2'
_cell_length_a       6.72834
_cell_length_b       2.58919
_cell_length_c       2.61069
_cell_angle_alpha    90
_cell_angle_beta     90
_cell_angle_gamma    90

_symmetry_Int_Tables_number  25
_chemical_formula_structural  GeH2
_chemical_formula_sum  GeH2
_cell_volume  45.4806568209369
_cell_formula_units_Z  1
loop_
  _symmetry_equiv_pos_site_id
 _symmetry_equiv_pos_as_xyz
 1  'x, y, z'
loop_
 _atom_site_type_symbol
 _atom_site_label
 _atom_site_symmetry_multiplicity
 _atom_site_fract_x
 _atom_site_fract_y
 _atom_site_fract_z
 _atom_site_fract_occupancy
 Ge  Ge1  1  0.46717  0.00000  0.00000  1
 H  H1  1  -0.03358  0.00000  0.85748  1
 H  H2  1  -0.03358  0.00000  0.14252  1
