CIF file written using JARVIS-Tools package.
data_KAg
_symmetry_space_group_name_H-M  'Cmcm'
_cell_length_a       6.51947
_cell_length_b       4.68178
_cell_length_c       4.85734
_cell_angle_alpha    90.0549
_cell_angle_beta     90.0137
_cell_angle_gamma    111.082

_symmetry_Int_Tables_number  63
_chemical_formula_structural  KAg
_chemical_formula_sum  K2Ag2
_cell_volume  138.33551624424624
_cell_formula_units_Z  2
loop_
  _symmetry_equiv_pos_site_id
 _symmetry_equiv_pos_as_xyz
 1  'x, y, z'
loop_
 _atom_site_type_symbol
 _atom_site_label
 _atom_site_symmetry_multiplicity
 _atom_site_fract_x
 _atom_site_fract_y
 _atom_site_fract_z
 _atom_site_fract_occupancy
 Ag  Ag1  1  0.71418  0.40746  0.83084  1
 Ag  Ag2  1  -0.04030  0.53085  0.33099  1
 K  K1  1  0.12704  0.11447  0.83100  1
 K  K2  1  0.54684  0.82390  0.33080  1
