CIF file written using JARVIS-Tools package.
data_CaPb3Se4
_symmetry_space_group_name_H-M  'Cmmm'
_cell_length_a       7.53006
_cell_length_b       7.53006
_cell_length_c       4.33628
_cell_angle_alpha    90
_cell_angle_beta     90
_cell_angle_gamma    109.376

_symmetry_Int_Tables_number  65
_chemical_formula_structural  CaPb3Se4
_chemical_formula_sum  CaPb3Se4
_cell_volume  231.94882833252288
_cell_formula_units_Z  1
loop_
  _symmetry_equiv_pos_site_id
 _symmetry_equiv_pos_as_xyz
 1  'x, y, z'
loop_
 _atom_site_type_symbol
 _atom_site_label
 _atom_site_symmetry_multiplicity
 _atom_site_fract_x
 _atom_site_fract_y
 _atom_site_fract_z
 _atom_site_fract_occupancy
 Ca  Ca1  1  0.50000  0.50000  0.00000  1
 Pb  Pb1  1  0.50000  0.00000  0.50000  1
 Pb  Pb2  1  0.00000  0.50000  0.50000  1
 Pb  Pb3  1  0.00000  0.00000  0.00000  1
 Se  Se1  1  0.25548  0.74452  0.00000  1
 Se  Se2  1  0.74452  0.25548  0.00000  1
 Se  Se3  1  0.73954  0.73954  0.50000  1
 Se  Se4  1  0.26046  0.26046  0.50000  1
