CIF file written using JARVIS-Tools package.
data_SiOs
_symmetry_space_group_name_H-M  'Pm'
_cell_length_a       6.05311
_cell_length_b       2.8217
_cell_length_c       6.58998
_cell_angle_alpha    115.377
_cell_angle_beta     95.628
_cell_angle_gamma    117.737

_symmetry_Int_Tables_number  6
_chemical_formula_structural  SiOs
_chemical_formula_sum  Si2Os2
_cell_volume  83.54900136008787
_cell_formula_units_Z  2
loop_
  _symmetry_equiv_pos_site_id
 _symmetry_equiv_pos_as_xyz
 1  'x, y, z'
loop_
 _atom_site_type_symbol
 _atom_site_label
 _atom_site_symmetry_multiplicity
 _atom_site_fract_x
 _atom_site_fract_y
 _atom_site_fract_z
 _atom_site_fract_occupancy
 Os  Os1  1  0.01726  0.08194  0.03287  1
 Os  Os2  1  0.42497  0.27038  0.31379  1
 Si  Si1  1  0.74868  0.43607  0.15497  1
 Si  Si2  1  0.69845  0.36712  0.63737  1
