CIF file written using JARVIS-Tools package.
data_LiH2IO
_symmetry_space_group_name_H-M  'Pmma'
_cell_length_a       4.34407
_cell_length_b       5.56619
_cell_length_c       6.32024
_cell_angle_alpha    90
_cell_angle_beta     90
_cell_angle_gamma    90

_symmetry_Int_Tables_number  51
_chemical_formula_structural  LiH2IO
_chemical_formula_sum  Li2H4I2O2
_cell_volume  152.8230501076417
_cell_formula_units_Z  2
loop_
  _symmetry_equiv_pos_site_id
 _symmetry_equiv_pos_as_xyz
 1  'x, y, z'
loop_
 _atom_site_type_symbol
 _atom_site_label
 _atom_site_symmetry_multiplicity
 _atom_site_fract_x
 _atom_site_fract_y
 _atom_site_fract_z
 _atom_site_fract_occupancy
 H  H1  1  0.67842  0.34595  0.75000  1
 H  H2  1  0.32158  0.34595  0.75000  1
 H  H3  1  0.67842  0.65405  0.25000  1
 H  H4  1  0.32158  0.65405  0.25000  1
 I  I1  1  0.00000  0.74077  0.75000  1
 I  I2  1  0.00000  0.25923  0.25000  1
 Li  Li1  1  0.50000  0.00000  0.50000  1
 Li  Li2  1  0.50000  0.00000  0.00000  1
 O  O1  1  0.50000  0.23490  0.75000  1
 O  O2  1  0.50000  0.76510  0.25000  1
