CIF file written using JARVIS-Tools package.
data_InPb
_symmetry_space_group_name_H-M  'C2/m'
_cell_length_a       3.49557
_cell_length_b       3.49557
_cell_length_c       5.97251
_cell_angle_alpha    73.3587
_cell_angle_beta     73.3587
_cell_angle_gamma    60.2805

_symmetry_Int_Tables_number  12
_chemical_formula_structural  InPb
_chemical_formula_sum  InPb
_cell_volume  59.803007455439776
_cell_formula_units_Z  1
loop_
  _symmetry_equiv_pos_site_id
 _symmetry_equiv_pos_as_xyz
 1  'x, y, z'
loop_
 _atom_site_type_symbol
 _atom_site_label
 _atom_site_symmetry_multiplicity
 _atom_site_fract_x
 _atom_site_fract_y
 _atom_site_fract_z
 _atom_site_fract_occupancy
 In  In1  1  0.74988  0.74988  0.25002  1
 Pb  Pb1  1  0.25011  0.25011  0.74998  1
