CIF file written using JARVIS-Tools package.
data_B2O
_symmetry_space_group_name_H-M  'P1'
_cell_length_a       2.7798
_cell_length_b       3.87675
_cell_length_c       2.36351
_cell_angle_alpha    73.244
_cell_angle_beta     91.7209
_cell_angle_gamma    69.7374

_symmetry_Int_Tables_number  1
_chemical_formula_structural  B2O
_chemical_formula_sum  B2O
_cell_volume  22.63938610676122
_cell_formula_units_Z  1
loop_
  _symmetry_equiv_pos_site_id
 _symmetry_equiv_pos_as_xyz
 1  'x, y, z'
loop_
 _atom_site_type_symbol
 _atom_site_label
 _atom_site_symmetry_multiplicity
 _atom_site_fract_x
 _atom_site_fract_y
 _atom_site_fract_z
 _atom_site_fract_occupancy
 B  B1  1  0.09298  0.31779  0.42945  1
 B  B2  1  0.43848  0.62831  0.27279  1
 O  O1  1  0.22751  0.04812  0.06268  1
