CIF file written using JARVIS-Tools package.
data_Tl3In
_symmetry_space_group_name_H-M  'Cmmm'
_cell_length_a       3.38915
_cell_length_b       3.38915
_cell_length_c       11.096
_cell_angle_alpha    90
_cell_angle_beta     90
_cell_angle_gamma    109.582

_symmetry_Int_Tables_number  65
_chemical_formula_structural  Tl3In
_chemical_formula_sum  Tl3In
_cell_volume  120.08101834071313
_cell_formula_units_Z  1
loop_
  _symmetry_equiv_pos_site_id
 _symmetry_equiv_pos_as_xyz
 1  'x, y, z'
loop_
 _atom_site_type_symbol
 _atom_site_label
 _atom_site_symmetry_multiplicity
 _atom_site_fract_x
 _atom_site_fract_y
 _atom_site_fract_z
 _atom_site_fract_occupancy
 In  In1  1  0.00000  0.00000  0.00000  1
 Tl  Tl1  1  0.50000  0.50000  0.75551  1
 Tl  Tl2  1  0.00000  0.00000  0.50000  1
 Tl  Tl3  1  0.50000  0.50000  0.24449  1
