CIF file written using JARVIS-Tools package.
data_MgAgO
_symmetry_space_group_name_H-M  'Amm2'
_cell_length_a       5.50618
_cell_length_b       5.50227
_cell_length_c       3.43133
_cell_angle_alpha    90
_cell_angle_beta     90
_cell_angle_gamma    148.545

_symmetry_Int_Tables_number  38
_chemical_formula_structural  MgAgO
_chemical_formula_sum  MgAgO
_cell_volume  54.24814681960301
_cell_formula_units_Z  1
loop_
  _symmetry_equiv_pos_site_id
 _symmetry_equiv_pos_as_xyz
 1  'x, y, z'
loop_
 _atom_site_type_symbol
 _atom_site_label
 _atom_site_symmetry_multiplicity
 _atom_site_fract_x
 _atom_site_fract_y
 _atom_site_fract_z
 _atom_site_fract_occupancy
 Ag  Ag1  1  0.31487  0.01831  0.00000  1
 Mg  Mg1  1  0.03905  0.29486  0.00000  1
 O  O1  1  0.64607  0.68683  0.00000  1
