CIF file written using JARVIS-Tools package.
data_Hf2Se3S3
_symmetry_space_group_name_H-M  'Pm'
_cell_length_a       3.6824
_cell_length_b       5.33084
_cell_length_c       9.35196
_cell_angle_alpha    82.5679
_cell_angle_beta     90
_cell_angle_gamma    90

_symmetry_Int_Tables_number  6
_chemical_formula_structural  Hf2Se3S3
_chemical_formula_sum  Hf2Se3S3
_cell_volume  182.03912492053547
_cell_formula_units_Z  1
loop_
  _symmetry_equiv_pos_site_id
 _symmetry_equiv_pos_as_xyz
 1  'x, y, z'
loop_
 _atom_site_type_symbol
 _atom_site_label
 _atom_site_symmetry_multiplicity
 _atom_site_fract_x
 _atom_site_fract_y
 _atom_site_fract_z
 _atom_site_fract_occupancy
 Hf  Hf1  1  0.50000  0.71460  0.66024  1
 Hf  Hf2  1  0.00000  0.28523  0.33706  1
 S  S1  1  0.50000  0.12765  0.17154  1
 S  S2  1  0.00000  0.89044  0.81565  1
 S  S3  1  0.50000  0.52290  0.17591  1
 Se  Se1  1  0.00000  0.46006  0.84303  1
 Se  Se2  1  0.50000  0.23771  0.55417  1
 Se  Se3  1  0.00000  0.76141  0.44242  1
