CIF file written using JARVIS-Tools package.
data_GaGePt6
_symmetry_space_group_name_H-M  'I-42m'
_cell_length_a       5.6272
_cell_length_b       5.6272
_cell_length_c       5.6272
_cell_angle_alpha    120.604
_cell_angle_beta     120.604
_cell_angle_gamma    88.9565

_symmetry_Int_Tables_number  121
_chemical_formula_structural  GaGePt6
_chemical_formula_sum  GaGePt6
_cell_volume  124.82421596852637
_cell_formula_units_Z  1
loop_
  _symmetry_equiv_pos_site_id
 _symmetry_equiv_pos_as_xyz
 1  'x, y, z'
loop_
 _atom_site_type_symbol
 _atom_site_label
 _atom_site_symmetry_multiplicity
 _atom_site_fract_x
 _atom_site_fract_y
 _atom_site_fract_z
 _atom_site_fract_occupancy
 Ga  Ga1  1  0.00000  0.00000  0.00000  1
 Ge  Ge1  1  0.50000  0.50000  -0.00000  1
 Pt  Pt1  1  0.94559  0.94559  0.39888  1
 Pt  Pt2  1  0.54671  0.54671  0.60112  1
 Pt  Pt3  1  0.05441  0.45329  0.00000  1
 Pt  Pt4  1  0.45329  0.05441  0.00000  1
 Pt  Pt5  1  0.50000  0.00000  0.50000  1
 Pt  Pt6  1  0.00000  0.50000  0.50000  1
