CIF file written using JARVIS-Tools package.
data_BHPb2O4
_symmetry_space_group_name_H-M  'C2/m'
_cell_length_a       7.0615
_cell_length_b       7.06151
_cell_length_c       7.38578
_cell_angle_alpha    65.8619
_cell_angle_beta     65.8619
_cell_angle_gamma    47.5875

_symmetry_Int_Tables_number  12
_chemical_formula_structural  BHPb2O4
_chemical_formula_sum  B2H2Pb4O8
_cell_volume  243.2447703672385
_cell_formula_units_Z  2
loop_
  _symmetry_equiv_pos_site_id
 _symmetry_equiv_pos_as_xyz
 1  'x, y, z'
loop_
 _atom_site_type_symbol
 _atom_site_label
 _atom_site_symmetry_multiplicity
 _atom_site_fract_x
 _atom_site_fract_y
 _atom_site_fract_z
 _atom_site_fract_occupancy
 B  B1  1  0.32900  0.32900  0.65552  1
 B  B2  1  0.67100  0.67100  0.34448  1
 H  H1  1  0.46018  0.46018  0.37746  1
 H  H2  1  0.53982  0.53982  0.62254  1
 O  O1  1  0.40814  0.40814  0.73231  1
 O  O2  1  0.59186  0.59186  0.26769  1
 O  O3  1  0.37101  0.37101  0.44298  1
 O  O4  1  0.62899  0.62899  0.55702  1
 O  O5  1  0.21310  0.21310  0.78169  1
 O  O6  1  0.78690  0.78690  0.21831  1
 O  O7  1  0.74481  0.25519  0.00000  1
 O  O8  1  0.25519  0.74481  0.00000  1
 Pb  Pb1  1  0.05274  0.05274  0.73154  1
 Pb  Pb2  1  0.94726  0.94726  0.26846  1
 Pb  Pb3  1  0.65886  0.65886  0.92062  1
 Pb  Pb4  1  0.34114  0.34114  0.07938  1
