CIF file written using JARVIS-Tools package.
data_Pr2SiCN2O4
_symmetry_space_group_name_H-M  'P-1'
_cell_length_a       6.50324
_cell_length_b       6.73931
_cell_length_c       6.78944
_cell_angle_alpha    85.5707
_cell_angle_beta     72.6371
_cell_angle_gamma    73.9533

_symmetry_Int_Tables_number  2
_chemical_formula_structural  Pr2SiCN2O4
_chemical_formula_sum  Pr4Si2C2N4O8
_cell_volume  272.9343347120905
_cell_formula_units_Z  2
loop_
  _symmetry_equiv_pos_site_id
 _symmetry_equiv_pos_as_xyz
 1  'x, y, z'
loop_
 _atom_site_type_symbol
 _atom_site_label
 _atom_site_symmetry_multiplicity
 _atom_site_fract_x
 _atom_site_fract_y
 _atom_site_fract_z
 _atom_site_fract_occupancy
 C  C1  1  0.43497  0.82096  0.69579  1
 C  C2  1  0.56503  0.17904  0.30421  1
 N  N1  1  0.35818  0.70250  0.62588  1
 N  N2  1  0.64182  0.29750  0.37412  1
 N  N3  1  0.47919  0.06855  0.23712  1
 N  N4  1  0.52081  0.93145  0.76288  1
 O  O1  1  0.09129  0.22258  0.98392  1
 O  O2  1  0.90871  0.77742  0.01608  1
 O  O3  1  0.86007  0.61261  0.37309  1
 O  O4  1  0.13993  0.38739  0.62691  1
 O  O5  1  0.11375  0.86839  0.30284  1
 O  O6  1  0.88625  0.13161  0.69716  1
 O  O7  1  0.27469  0.51695  0.11357  1
 O  O8  1  0.72531  0.48305  0.88643  1
 Pr  Pr1  1  0.06405  0.23767  0.33144  1
 Pr  Pr2  1  0.93595  0.76233  0.66856  1
 Pr  Pr3  1  0.45623  0.31969  0.78591  1
 Pr  Pr4  1  0.54377  0.68031  0.21409  1
 Si  Si1  1  0.95840  0.29566  0.81419  1
 Si  Si2  1  0.04160  0.70434  0.18581  1
