CIF file written using JARVIS-Tools package.
data_BiN2
_symmetry_space_group_name_H-M  'P-1'
_cell_length_a       4.00287
_cell_length_b       3.36631
_cell_length_c       4.8459
_cell_angle_alpha    85.6731
_cell_angle_beta     95.0172
_cell_angle_gamma    125.102

_symmetry_Int_Tables_number  2
_chemical_formula_structural  BiN2
_chemical_formula_sum  BiN2
_cell_volume  53.19197763878657
_cell_formula_units_Z  1
loop_
  _symmetry_equiv_pos_site_id
 _symmetry_equiv_pos_as_xyz
 1  'x, y, z'
loop_
 _atom_site_type_symbol
 _atom_site_label
 _atom_site_symmetry_multiplicity
 _atom_site_fract_x
 _atom_site_fract_y
 _atom_site_fract_z
 _atom_site_fract_occupancy
 Bi  Bi1  1  0.20936  0.25446  -0.04177  1
 N  N1  1  -0.14627  0.25498  0.46131  1
 N  N2  1  0.56491  0.25401  0.45517  1
