CIF file written using JARVIS-Tools package.
data_BiTePb
_symmetry_space_group_name_H-M  'Pm'
_cell_length_a       6.46091
_cell_length_b       6.30609
_cell_length_c       3.25484
_cell_angle_alpha    90
_cell_angle_beta     90
_cell_angle_gamma    60.4384

_symmetry_Int_Tables_number  6
_chemical_formula_structural  BiTePb
_chemical_formula_sum  BiTePb
_cell_volume  115.3492780962336
_cell_formula_units_Z  1
loop_
  _symmetry_equiv_pos_site_id
 _symmetry_equiv_pos_as_xyz
 1  'x, y, z'
loop_
 _atom_site_type_symbol
 _atom_site_label
 _atom_site_symmetry_multiplicity
 _atom_site_fract_x
 _atom_site_fract_y
 _atom_site_fract_z
 _atom_site_fract_occupancy
 Bi  Bi1  1  0.00530  -0.10803  0.00000  1
 Pb  Pb1  1  0.45497  -0.00341  0.00000  1
 Te  Te1  1  -0.10852  0.44464  0.00000  1
