CIF file written using JARVIS-Tools package.
data_MgC3
_symmetry_space_group_name_H-M  'P-1'
_cell_length_a       4.49739
_cell_length_b       4.10527
_cell_length_c       3.85496
_cell_angle_alpha    52.3324
_cell_angle_beta     105.345
_cell_angle_gamma    71.7645

_symmetry_Int_Tables_number  2
_chemical_formula_structural  MgC3
_chemical_formula_sum  MgC3
_cell_volume  42.55146176343759
_cell_formula_units_Z  1
loop_
  _symmetry_equiv_pos_site_id
 _symmetry_equiv_pos_as_xyz
 1  'x, y, z'
loop_
 _atom_site_type_symbol
 _atom_site_label
 _atom_site_symmetry_multiplicity
 _atom_site_fract_x
 _atom_site_fract_y
 _atom_site_fract_z
 _atom_site_fract_occupancy
 C  C1  1  0.04050  -0.08072  0.99520  1
 C  C2  1  0.94362  0.02815  0.22803  1
 C  C3  1  0.84687  0.13691  0.46098  1
 Mg  Mg1  1  0.44369  0.02812  0.72827  1
