CIF file written using JARVIS-Tools package.
data_NaF
_symmetry_space_group_name_H-M  'I4/mmm'
_cell_length_a       3.2649
_cell_length_b       3.26377
_cell_length_c       3.26536
_cell_angle_alpha    119.735
_cell_angle_beta     90.3375
_cell_angle_gamma    119.876

_symmetry_Int_Tables_number  139
_chemical_formula_structural  NaF
_chemical_formula_sum  NaF
_cell_volume  24.675704147279156
_cell_formula_units_Z  1
loop_
  _symmetry_equiv_pos_site_id
 _symmetry_equiv_pos_as_xyz
 1  'x, y, z'
loop_
 _atom_site_type_symbol
 _atom_site_label
 _atom_site_symmetry_multiplicity
 _atom_site_fract_x
 _atom_site_fract_y
 _atom_site_fract_z
 _atom_site_fract_occupancy
 F  F1  1  0.44113  0.15618  0.59844  1
 Na  Na1  1  0.94114  0.15615  0.09843  1
