CIF file written using JARVIS-Tools package.
data_Na2Se
_symmetry_space_group_name_H-M  'Amm2'
_cell_length_a       4.35539
_cell_length_b       5.98958
_cell_length_c       5.16796
_cell_angle_alpha    74.1184
_cell_angle_beta     89.9562
_cell_angle_gamma    43.3579

_symmetry_Int_Tables_number  38
_chemical_formula_structural  Na2Se
_chemical_formula_sum  Na2Se
_cell_volume  84.92078716650299
_cell_formula_units_Z  1
loop_
  _symmetry_equiv_pos_site_id
 _symmetry_equiv_pos_as_xyz
 1  'x, y, z'
loop_
 _atom_site_type_symbol
 _atom_site_label
 _atom_site_symmetry_multiplicity
 _atom_site_fract_x
 _atom_site_fract_y
 _atom_site_fract_z
 _atom_site_fract_occupancy
 Na  Na1  1  0.67271  0.40827  0.30336  1
 Na  Na2  1  0.91706  0.66431  0.79113  1
 Se  Se1  1  0.96658  0.11468  0.89042  1
