CIF file written using JARVIS-Tools package.
data_AuC2
_symmetry_space_group_name_H-M  'C2/m'
_cell_length_a       5.20468
_cell_length_b       4.25764
_cell_length_c       3.12758
_cell_angle_alpha    68.2611
_cell_angle_beta     127.505
_cell_angle_gamma    127.456

_symmetry_Int_Tables_number  12
_chemical_formula_structural  AuC2
_chemical_formula_sum  AuC2
_cell_volume  43.644774519402894
_cell_formula_units_Z  1
loop_
  _symmetry_equiv_pos_site_id
 _symmetry_equiv_pos_as_xyz
 1  'x, y, z'
loop_
 _atom_site_type_symbol
 _atom_site_label
 _atom_site_symmetry_multiplicity
 _atom_site_fract_x
 _atom_site_fract_y
 _atom_site_fract_z
 _atom_site_fract_occupancy
 Au  Au1  1  0.83762  0.78259  -0.07838  1
 C  C1  1  0.49127  0.78264  0.05302  1
 C  C2  1  0.18394  0.78253  0.79021  1
