CIF file written using JARVIS-Tools package.
data_CdO2
_symmetry_space_group_name_H-M  'P-1'
_cell_length_a       3.9962
_cell_length_b       3.59435
_cell_length_c       3.48024
_cell_angle_alpha    117.862
_cell_angle_beta     88.768
_cell_angle_gamma    67.1195

_symmetry_Int_Tables_number  2
_chemical_formula_structural  CdO2
_chemical_formula_sum  CdO2
_cell_volume  39.42963687095245
_cell_formula_units_Z  1
loop_
  _symmetry_equiv_pos_site_id
 _symmetry_equiv_pos_as_xyz
 1  'x, y, z'
loop_
 _atom_site_type_symbol
 _atom_site_label
 _atom_site_symmetry_multiplicity
 _atom_site_fract_x
 _atom_site_fract_y
 _atom_site_fract_z
 _atom_site_fract_occupancy
 Cd  Cd1  1  0.88165  0.56973  0.06866  1
 O  O1  1  0.17509  0.73292  0.64394  1
 O  O2  1  0.58820  0.40657  0.49337  1
