CIF file written using JARVIS-Tools package.
data_LiGaAu
_symmetry_space_group_name_H-M  'P-6m2'
_cell_length_a       4.66469
_cell_length_b       4.66455
_cell_length_c       2.8155
_cell_angle_alpha    90
_cell_angle_beta     90
_cell_angle_gamma    119.987

_symmetry_Int_Tables_number  187
_chemical_formula_structural  LiGaAu
_chemical_formula_sum  LiGaAu
_cell_volume  53.06119175782134
_cell_formula_units_Z  1
loop_
  _symmetry_equiv_pos_site_id
 _symmetry_equiv_pos_as_xyz
 1  'x, y, z'
loop_
 _atom_site_type_symbol
 _atom_site_label
 _atom_site_symmetry_multiplicity
 _atom_site_fract_x
 _atom_site_fract_y
 _atom_site_fract_z
 _atom_site_fract_occupancy
 Au  Au1  1  -0.23266  -0.24267  0.00000  1
 Ga  Ga1  1  0.43401  0.09067  0.00000  1
 Li  Li1  1  0.10070  0.42402  0.00000  1
