CIF file written using JARVIS-Tools package.
data_AuC2
_symmetry_space_group_name_H-M  'Cmmm'
_cell_length_a       5.01552
_cell_length_b       3.12597
_cell_length_c       2.55299
_cell_angle_alpha    90
_cell_angle_beta     75.3405
_cell_angle_gamma    90

_symmetry_Int_Tables_number  65
_chemical_formula_structural  AuC2
_chemical_formula_sum  AuC2
_cell_volume  38.72386882020547
_cell_formula_units_Z  1
loop_
  _symmetry_equiv_pos_site_id
 _symmetry_equiv_pos_as_xyz
 1  'x, y, z'
loop_
 _atom_site_type_symbol
 _atom_site_label
 _atom_site_symmetry_multiplicity
 _atom_site_fract_x
 _atom_site_fract_y
 _atom_site_fract_z
 _atom_site_fract_occupancy
 Au  Au1  1  0.46667  0.00000  0.13330  1
 C  C1  1  -0.09308  0.00000  -0.08701  1
 C  C2  1  0.02641  0.00000  0.35371  1
