CIF file written using JARVIS-Tools package.
data_HF
_symmetry_space_group_name_H-M  'Cm'
_cell_length_a       2.94728
_cell_length_b       3.70996
_cell_length_c       4.63358
_cell_angle_alpha    39.5497
_cell_angle_beta     84.3311
_cell_angle_gamma    92.2218

_symmetry_Int_Tables_number  8
_chemical_formula_structural  HF
_chemical_formula_sum  H2F2
_cell_volume  31.5704696826445
_cell_formula_units_Z  2
loop_
  _symmetry_equiv_pos_site_id
 _symmetry_equiv_pos_as_xyz
 1  'x, y, z'
loop_
 _atom_site_type_symbol
 _atom_site_label
 _atom_site_symmetry_multiplicity
 _atom_site_fract_x
 _atom_site_fract_y
 _atom_site_fract_z
 _atom_site_fract_occupancy
 F  F1  1  0.75831  0.54185  0.46504  1
 F  F2  1  0.15101  0.43071  0.07407  1
 H  H1  1  0.98580  0.04740  0.23753  1
 H  H2  1  0.92284  0.48466  0.30051  1
