CIF file written using JARVIS-Tools package.
data_HF
_symmetry_space_group_name_H-M  'I4/mmm'
_cell_length_a       2.21913
_cell_length_b       2.21913
_cell_length_c       5.25416
_cell_angle_alpha    90
_cell_angle_beta     90
_cell_angle_gamma    90

_symmetry_Int_Tables_number  139
_chemical_formula_structural  HF
_chemical_formula_sum  H2F2
_cell_volume  25.874184861998945
_cell_formula_units_Z  2
loop_
  _symmetry_equiv_pos_site_id
 _symmetry_equiv_pos_as_xyz
 1  'x, y, z'
loop_
 _atom_site_type_symbol
 _atom_site_label
 _atom_site_symmetry_multiplicity
 _atom_site_fract_x
 _atom_site_fract_y
 _atom_site_fract_z
 _atom_site_fract_occupancy
 F  F1  1  0.00000  0.00000  0.75004  1
 F  F2  1  0.50000  0.50000  0.24996  1
 H  H1  1  0.00000  0.00000  0.24995  1
 H  H2  1  0.50000  0.50000  0.75006  1
