CIF file written using JARVIS-Tools package.
data_RbHO
_symmetry_space_group_name_H-M  'Cmc2_1'
_cell_length_a       4.13091
_cell_length_b       4.17624
_cell_length_c       5.80065
_cell_angle_alpha    90
_cell_angle_beta     110.844
_cell_angle_gamma    90

_symmetry_Int_Tables_number  36
_chemical_formula_structural  RbHO
_chemical_formula_sum  Rb2H2O2
_cell_volume  93.52166306021665
_cell_formula_units_Z  2
loop_
  _symmetry_equiv_pos_site_id
 _symmetry_equiv_pos_as_xyz
 1  'x, y, z'
loop_
 _atom_site_type_symbol
 _atom_site_label
 _atom_site_symmetry_multiplicity
 _atom_site_fract_x
 _atom_site_fract_y
 _atom_site_fract_z
 _atom_site_fract_occupancy
 H  H1  1  0.46702  0.89805  0.93413  1
 H  H2  1  0.53298  0.39804  0.06587  1
 O  O1  1  0.39976  0.73845  0.80010  1
 O  O2  1  0.60024  0.23845  0.19990  1
 Rb  Rb1  1  0.13951  0.76154  0.27880  1
 Rb  Rb2  1  0.86049  0.26154  0.72119  1
