CIF file written using JARVIS-Tools package.
data_HS3
_symmetry_space_group_name_H-M  'P1'
_cell_length_a       5.10391
_cell_length_b       5.2572
_cell_length_c       3.38297
_cell_angle_alpha    108.73
_cell_angle_beta     108.113
_cell_angle_gamma    83.5306

_symmetry_Int_Tables_number  1
_chemical_formula_structural  HS3
_chemical_formula_sum  HS3
_cell_volume  81.69736653282581
_cell_formula_units_Z  1
loop_
  _symmetry_equiv_pos_site_id
 _symmetry_equiv_pos_as_xyz
 1  'x, y, z'
loop_
 _atom_site_type_symbol
 _atom_site_label
 _atom_site_symmetry_multiplicity
 _atom_site_fract_x
 _atom_site_fract_y
 _atom_site_fract_z
 _atom_site_fract_occupancy
 H  H1  1  0.12988  0.16597  0.22178  1
 S  S1  1  0.87170  0.25079  0.24510  1
 S  S2  1  0.37061  0.71452  0.70736  1
 S  S3  1  -0.02722  0.66345  0.48941  1
