CIF file written using JARVIS-Tools package.
data_BH
_symmetry_space_group_name_H-M  'P-6m2'
_cell_length_a       2.62085
_cell_length_b       2.62085
_cell_length_c       1.81236
_cell_angle_alpha    90
_cell_angle_beta     90
_cell_angle_gamma    120

_symmetry_Int_Tables_number  187
_chemical_formula_structural  BH
_chemical_formula_sum  BH
_cell_volume  10.781035874540164
_cell_formula_units_Z  1
loop_
  _symmetry_equiv_pos_site_id
 _symmetry_equiv_pos_as_xyz
 1  'x, y, z'
loop_
 _atom_site_type_symbol
 _atom_site_label
 _atom_site_symmetry_multiplicity
 _atom_site_fract_x
 _atom_site_fract_y
 _atom_site_fract_z
 _atom_site_fract_occupancy
 B  B1  1  0.00000  0.00000  0.00000  1
 H  H1  1  0.33333  0.66667  0.00000  1
