CIF file written using JARVIS-Tools package.
data_BH
_symmetry_space_group_name_H-M  'P4/nmm'
_cell_length_a       2.03681
_cell_length_b       2.03681
_cell_length_c       5.02043
_cell_angle_alpha    90
_cell_angle_beta     90
_cell_angle_gamma    90

_symmetry_Int_Tables_number  129
_chemical_formula_structural  BH
_chemical_formula_sum  B2H2
_cell_volume  20.82764466265502
_cell_formula_units_Z  2
loop_
  _symmetry_equiv_pos_site_id
 _symmetry_equiv_pos_as_xyz
 1  'x, y, z'
loop_
 _atom_site_type_symbol
 _atom_site_label
 _atom_site_symmetry_multiplicity
 _atom_site_fract_x
 _atom_site_fract_y
 _atom_site_fract_z
 _atom_site_fract_occupancy
 B  B1  1  0.00000  0.00000  0.35573  1
 B  B2  1  0.50000  0.50000  0.64427  1
 H  H1  1  0.00000  0.00000  0.81026  1
 H  H2  1  0.50000  0.50000  0.18974  1
