CIF file written using JARVIS-Tools package.
data_B2H
_symmetry_space_group_name_H-M  'P-1'
_cell_length_a       3.30717
_cell_length_b       3.81674
_cell_length_c       1.75548
_cell_angle_alpha    103.887
_cell_angle_beta     58.5329
_cell_angle_gamma    85.5631

_symmetry_Int_Tables_number  2
_chemical_formula_structural  B2H
_chemical_formula_sum  B2H
_cell_volume  17.789578008802934
_cell_formula_units_Z  1
loop_
  _symmetry_equiv_pos_site_id
 _symmetry_equiv_pos_as_xyz
 1  'x, y, z'
loop_
 _atom_site_type_symbol
 _atom_site_label
 _atom_site_symmetry_multiplicity
 _atom_site_fract_x
 _atom_site_fract_y
 _atom_site_fract_z
 _atom_site_fract_occupancy
 B  B1  1  0.65651  0.32823  0.53943  1
 B  B2  1  0.08041  0.55609  0.72965  1
 H  H1  1  0.86840  0.94219  0.13461  1
