CIF file written using JARVIS-Tools package.
data_CaBeP
_symmetry_space_group_name_H-M  'Amm2'
_cell_length_a       3.74709
_cell_length_b       5.4603
_cell_length_c       4.47515
_cell_angle_alpha    90
_cell_angle_beta     90
_cell_angle_gamma    110.063

_symmetry_Int_Tables_number  38
_chemical_formula_structural  CaBeP
_chemical_formula_sum  CaBeP
_cell_volume  86.00653010593871
_cell_formula_units_Z  1
loop_
  _symmetry_equiv_pos_site_id
 _symmetry_equiv_pos_as_xyz
 1  'x, y, z'
loop_
 _atom_site_type_symbol
 _atom_site_label
 _atom_site_symmetry_multiplicity
 _atom_site_fract_x
 _atom_site_fract_y
 _atom_site_fract_z
 _atom_site_fract_occupancy
 Be  Be1  1  0.38172  -0.00538  0.00000  1
 Ca  Ca1  1  0.09816  0.42742  0.00000  1
 P  P1  1  -0.19246  -0.15378  0.00000  1
