CIF file written using JARVIS-Tools package.
data_BiPSe4
_symmetry_space_group_name_H-M  'I-4'
_cell_length_a       6.07703
_cell_length_b       6.07703
_cell_length_c       6.07703
_cell_angle_alpha    113.503
_cell_angle_beta     113.503
_cell_angle_gamma    101.678

_symmetry_Int_Tables_number  82
_chemical_formula_structural  BiPSe4
_chemical_formula_sum  BiPSe4
_cell_volume  170.4124940359672
_cell_formula_units_Z  1
loop_
  _symmetry_equiv_pos_site_id
 _symmetry_equiv_pos_as_xyz
 1  'x, y, z'
loop_
 _atom_site_type_symbol
 _atom_site_label
 _atom_site_symmetry_multiplicity
 _atom_site_fract_x
 _atom_site_fract_y
 _atom_site_fract_z
 _atom_site_fract_occupancy
 Bi  Bi1  1  0.00000  0.00000  0.00000  1
 P  P1  1  0.75000  0.25000  0.50000  1
 Se  Se1  1  0.76060  0.35802  0.90804  1
 Se  Se2  1  0.44999  0.85256  0.09197  1
 Se  Se3  1  0.64198  0.55001  0.40258  1
 Se  Se4  1  0.14744  0.23940  0.59742  1
