CIF file written using JARVIS-Tools package.
data_InOF
_symmetry_space_group_name_H-M  'Pmmn'
_cell_length_a       3.43301
_cell_length_b       4.08761
_cell_length_c       5.69153
_cell_angle_alpha    90
_cell_angle_beta     90
_cell_angle_gamma    90

_symmetry_Int_Tables_number  59
_chemical_formula_structural  InOF
_chemical_formula_sum  In2O2F2
_cell_volume  79.86824786214923
_cell_formula_units_Z  2
loop_
  _symmetry_equiv_pos_site_id
 _symmetry_equiv_pos_as_xyz
 1  'x, y, z'
loop_
 _atom_site_type_symbol
 _atom_site_label
 _atom_site_symmetry_multiplicity
 _atom_site_fract_x
 _atom_site_fract_y
 _atom_site_fract_z
 _atom_site_fract_occupancy
 F  F1  1  0.00000  0.50000  0.58215  1
 F  F2  1  0.50000  0.00000  0.41785  1
 In  In1  1  0.00000  0.00000  0.18354  1
 In  In2  1  0.50000  0.50000  0.81646  1
 O  O1  1  0.50000  0.00000  0.92514  1
 O  O2  1  0.00000  0.50000  0.07486  1
