CIF file written using JARVIS-Tools package.
data_AlAsO4
_symmetry_space_group_name_H-M  'Cmmm'
_cell_length_a       4.39708
_cell_length_b       4.39708
_cell_length_c       2.87228
_cell_angle_alpha    90
_cell_angle_beta     90
_cell_angle_gamma    93.0402

_symmetry_Int_Tables_number  65
_chemical_formula_structural  AlAsO4
_chemical_formula_sum  AlAsO4
_cell_volume  55.455497132527576
_cell_formula_units_Z  1
loop_
  _symmetry_equiv_pos_site_id
 _symmetry_equiv_pos_as_xyz
 1  'x, y, z'
loop_
 _atom_site_type_symbol
 _atom_site_label
 _atom_site_symmetry_multiplicity
 _atom_site_fract_x
 _atom_site_fract_y
 _atom_site_fract_z
 _atom_site_fract_occupancy
 Al  Al1  1  0.50000  0.50000  0.50000  1
 As  As1  1  0.00000  0.00000  0.00000  1
 O  O1  1  0.69833  0.69833  0.00000  1
 O  O2  1  0.80805  0.19195  0.50000  1
 O  O3  1  0.19195  0.80805  0.50000  1
 O  O4  1  0.30167  0.30167  0.00000  1
