CIF file written using JARVIS-Tools package.
data_Li2HN
_symmetry_space_group_name_H-M  'Imm2'
_cell_length_a       3.63919
_cell_length_b       3.63919
_cell_length_c       3.63919
_cell_angle_alpha    121.968
_cell_angle_beta     83.3087
_cell_angle_gamma    125.95

_symmetry_Int_Tables_number  44
_chemical_formula_structural  Li2HN
_chemical_formula_sum  Li2HN
_cell_volume  31.747066271729707
_cell_formula_units_Z  1
loop_
  _symmetry_equiv_pos_site_id
 _symmetry_equiv_pos_as_xyz
 1  'x, y, z'
loop_
 _atom_site_type_symbol
 _atom_site_label
 _atom_site_symmetry_multiplicity
 _atom_site_fract_x
 _atom_site_fract_y
 _atom_site_fract_z
 _atom_site_fract_occupancy
 H  H1  1  0.74349  0.74349  0.00000  1
 Li  Li1  1  0.20196  0.49037  0.71159  1
 Li  Li2  1  0.77878  0.49037  0.28841  1
 N  N1  1  0.05577  0.05577  -0.00000  1
