CIF file written using JARVIS-Tools package.
data_Li2HN
_symmetry_space_group_name_H-M  'R3m'
_cell_length_a       3.63877
_cell_length_b       3.63877
_cell_length_c       3.63877
_cell_angle_alpha    58.7563
_cell_angle_beta     58.7563
_cell_angle_gamma    58.7565

_symmetry_Int_Tables_number  160
_chemical_formula_structural  Li2HN
_chemical_formula_sum  Li2HN
_cell_volume  33.10031812172963
_cell_formula_units_Z  1
loop_
  _symmetry_equiv_pos_site_id
 _symmetry_equiv_pos_as_xyz
 1  'x, y, z'
loop_
 _atom_site_type_symbol
 _atom_site_label
 _atom_site_symmetry_multiplicity
 _atom_site_fract_x
 _atom_site_fract_y
 _atom_site_fract_z
 _atom_site_fract_occupancy
 H  H1  1  0.08883  0.08883  0.08883  1
 Li  Li1  1  0.28257  0.28257  0.28257  1
 Li  Li2  1  0.74713  0.74713  0.74713  1
 N  N1  1  0.97447  0.97447  0.97447  1
