CIF file written using JARVIS-Tools package.
data_TlSnF3
_symmetry_space_group_name_H-M  'P1'
_cell_length_a       4.48231
_cell_length_b       5.15003
_cell_length_c       4.48194
_cell_angle_alpha    101.128
_cell_angle_beta     89.7465
_cell_angle_gamma    90.9623

_symmetry_Int_Tables_number  1
_chemical_formula_structural  TlSnF3
_chemical_formula_sum  TlSnF3
_cell_volume  101.50185768560252
_cell_formula_units_Z  1
loop_
  _symmetry_equiv_pos_site_id
 _symmetry_equiv_pos_as_xyz
 1  'x, y, z'
loop_
 _atom_site_type_symbol
 _atom_site_label
 _atom_site_symmetry_multiplicity
 _atom_site_fract_x
 _atom_site_fract_y
 _atom_site_fract_z
 _atom_site_fract_occupancy
 F  F1  1  0.51018  0.58497  0.98085  1
 F  F2  1  0.01277  0.58460  0.48027  1
 F  F3  1  0.52136  0.89730  0.56927  1
 Sn  Sn1  1  0.50887  0.47964  0.45750  1
 Tl  Tl1  1  0.00683  0.94349  0.01211  1
