CIF file written using JARVIS-Tools package.
data_CaAlF
_symmetry_space_group_name_H-M  'Pm'
_cell_length_a       6.59676
_cell_length_b       5.45251
_cell_length_c       3.41036
_cell_angle_alpha    90
_cell_angle_beta     90
_cell_angle_gamma    35.7066

_symmetry_Int_Tables_number  6
_chemical_formula_structural  CaAlF
_chemical_formula_sum  CaAlF
_cell_volume  71.59261191734149
_cell_formula_units_Z  1
loop_
  _symmetry_equiv_pos_site_id
 _symmetry_equiv_pos_as_xyz
 1  'x, y, z'
loop_
 _atom_site_type_symbol
 _atom_site_label
 _atom_site_symmetry_multiplicity
 _atom_site_fract_x
 _atom_site_fract_y
 _atom_site_fract_z
 _atom_site_fract_occupancy
 Al  Al1  1  -0.04122  -0.07224  0.00000  1
 Ca  Ca1  1  0.44982  -0.00224  0.00000  1
 F  F1  1  -0.05682  0.28792  0.00000  1
