CIF file written using JARVIS-Tools package.
data_HfC3
_symmetry_space_group_name_H-M  'P1'
_cell_length_a       3.4263
_cell_length_b       4.68576
_cell_length_c       3.78709
_cell_angle_alpha    122.539
_cell_angle_beta     72.7798
_cell_angle_gamma    87.1134

_symmetry_Int_Tables_number  1
_chemical_formula_structural  HfC3
_chemical_formula_sum  HfC3
_cell_volume  47.27166614087706
_cell_formula_units_Z  1
loop_
  _symmetry_equiv_pos_site_id
 _symmetry_equiv_pos_as_xyz
 1  'x, y, z'
loop_
 _atom_site_type_symbol
 _atom_site_label
 _atom_site_symmetry_multiplicity
 _atom_site_fract_x
 _atom_site_fract_y
 _atom_site_fract_z
 _atom_site_fract_occupancy
 C  C1  1  0.83077  0.00545  0.17769  1
 C  C2  1  0.11605  0.62930  0.60476  1
 C  C3  1  0.34462  0.42731  0.14733  1
 Hf  Hf1  1  0.57102  0.93981  0.64467  1
