CIF file written using JARVIS-Tools package.
data_H2S
_symmetry_space_group_name_H-M  'P1'
_cell_length_a       3.86947
_cell_length_b       3.8452
_cell_length_c       4.31841
_cell_angle_alpha    56.3745
_cell_angle_beta     123.025
_cell_angle_gamma    118.207

_symmetry_Int_Tables_number  1
_chemical_formula_structural  H2S
_chemical_formula_sum  H2S
_cell_volume  43.49369505193246
_cell_formula_units_Z  1
loop_
  _symmetry_equiv_pos_site_id
 _symmetry_equiv_pos_as_xyz
 1  'x, y, z'
loop_
 _atom_site_type_symbol
 _atom_site_label
 _atom_site_symmetry_multiplicity
 _atom_site_fract_x
 _atom_site_fract_y
 _atom_site_fract_z
 _atom_site_fract_occupancy
 H  H1  1  0.18485  0.55222  0.76847  1
 H  H2  1  0.56765  0.16014  0.15188  1
 S  S1  1  0.14233  0.12059  0.96117  1
