CIF file written using JARVIS-Tools package.
data_HfO2
_symmetry_space_group_name_H-M  'C2/m'
_cell_length_a       3.65725
_cell_length_b       3.64502
_cell_length_c       3.47057
_cell_angle_alpha    121.1
_cell_angle_beta     89.985
_cell_angle_gamma    59.8018

_symmetry_Int_Tables_number  12
_chemical_formula_structural  HfO2
_chemical_formula_sum  HfO2
_cell_volume  32.05524338583331
_cell_formula_units_Z  1
loop_
  _symmetry_equiv_pos_site_id
 _symmetry_equiv_pos_as_xyz
 1  'x, y, z'
loop_
 _atom_site_type_symbol
 _atom_site_label
 _atom_site_symmetry_multiplicity
 _atom_site_fract_x
 _atom_site_fract_y
 _atom_site_fract_z
 _atom_site_fract_occupancy
 Hf  Hf1  1  0.75078  0.07416  0.87222  1
 O  O1  1  0.00540  0.56454  0.10928  1
 O  O2  1  0.49612  0.58379  0.63513  1
