CIF file written using JARVIS-Tools package.
data_CaAgO
_symmetry_space_group_name_H-M  'Amm2'
_cell_length_a       5.93406
_cell_length_b       5.93659
_cell_length_c       3.49008
_cell_angle_alpha    90
_cell_angle_beta     90
_cell_angle_gamma    147.65

_symmetry_Int_Tables_number  38
_chemical_formula_structural  CaAgO
_chemical_formula_sum  CaAgO
_cell_volume  65.78866233507175
_cell_formula_units_Z  1
loop_
  _symmetry_equiv_pos_site_id
 _symmetry_equiv_pos_as_xyz
 1  'x, y, z'
loop_
 _atom_site_type_symbol
 _atom_site_label
 _atom_site_symmetry_multiplicity
 _atom_site_fract_x
 _atom_site_fract_y
 _atom_site_fract_z
 _atom_site_fract_occupancy
 Ag  Ag1  1  0.30502  0.02764  0.00000  1
 Ca  Ca1  1  0.04067  0.29308  0.00000  1
 O  O1  1  0.65431  0.67928  0.00000  1
