CIF file written using JARVIS-Tools package.
data_Be2S
_symmetry_space_group_name_H-M  'P1'
_cell_length_a       3.30615
_cell_length_b       4.61194
_cell_length_c       4.31087
_cell_angle_alpha    79.8127
_cell_angle_beta     82.04
_cell_angle_gamma    45.0552

_symmetry_Int_Tables_number  1
_chemical_formula_structural  Be2S
_chemical_formula_sum  Be2S
_cell_volume  45.78146820925067
_cell_formula_units_Z  1
loop_
  _symmetry_equiv_pos_site_id
 _symmetry_equiv_pos_as_xyz
 1  'x, y, z'
loop_
 _atom_site_type_symbol
 _atom_site_label
 _atom_site_symmetry_multiplicity
 _atom_site_fract_x
 _atom_site_fract_y
 _atom_site_fract_z
 _atom_site_fract_occupancy
 Be  Be1  1  0.43974  0.34675  0.33715  1
 Be  Be2  1  0.46743  0.00848  0.76073  1
 S  S1  1  0.04005  0.88637  0.04794  1
