CIF file written using JARVIS-Tools package.
data_BiF3
_symmetry_space_group_name_H-M  'P-3m1'
_cell_length_a       4.10952
_cell_length_b       4.10839
_cell_length_c       4.54009
_cell_angle_alpha    89.9985
_cell_angle_beta     90.0638
_cell_angle_gamma    119.987

_symmetry_Int_Tables_number  164
_chemical_formula_structural  BiF3
_chemical_formula_sum  BiF3
_cell_volume  66.39215643875625
_cell_formula_units_Z  1
loop_
  _symmetry_equiv_pos_site_id
 _symmetry_equiv_pos_as_xyz
 1  'x, y, z'
loop_
 _atom_site_type_symbol
 _atom_site_label
 _atom_site_symmetry_multiplicity
 _atom_site_fract_x
 _atom_site_fract_y
 _atom_site_fract_z
 _atom_site_fract_occupancy
 Bi  Bi1  1  0.68088  0.18991  0.11669  1
 F  F1  1  0.01439  0.85660  0.22623  1
 F  F2  1  0.34739  0.52311  0.00710  1
 F  F3  1  0.68088  0.18996  0.61669  1
