CIF file written using JARVIS-Tools package.
data_MgC2
_symmetry_space_group_name_H-M  'P-1'
_cell_length_a       2.59262
_cell_length_b       5.23826
_cell_length_c       2.60298
_cell_angle_alpha    78.9858
_cell_angle_beta     119.911
_cell_angle_gamma    104.899

_symmetry_Int_Tables_number  2
_chemical_formula_structural  MgC2
_chemical_formula_sum  MgC2
_cell_volume  29.528504236737824
_cell_formula_units_Z  1
loop_
  _symmetry_equiv_pos_site_id
 _symmetry_equiv_pos_as_xyz
 1  'x, y, z'
loop_
 _atom_site_type_symbol
 _atom_site_label
 _atom_site_symmetry_multiplicity
 _atom_site_fract_x
 _atom_site_fract_y
 _atom_site_fract_z
 _atom_site_fract_occupancy
 C  C1  1  0.74974  0.36610  0.86517  1
 C  C2  1  0.09165  0.38364  0.53031  1
 Mg  Mg1  1  -0.07857  0.87494  -0.30312  1
