CIF file written using JARVIS-Tools package.
data_MgC2
_symmetry_space_group_name_H-M  'Cmmm'
_cell_length_a       4.46197
_cell_length_b       3.64724
_cell_length_c       2.55264
_cell_angle_alpha    90
_cell_angle_beta     73.3852
_cell_angle_gamma    90

_symmetry_Int_Tables_number  65
_chemical_formula_structural  MgC2
_chemical_formula_sum  MgC2
_cell_volume  39.80696622224183
_cell_formula_units_Z  1
loop_
  _symmetry_equiv_pos_site_id
 _symmetry_equiv_pos_as_xyz
 1  'x, y, z'
loop_
 _atom_site_type_symbol
 _atom_site_label
 _atom_site_symmetry_multiplicity
 _atom_site_fract_x
 _atom_site_fract_y
 _atom_site_fract_z
 _atom_site_fract_occupancy
 C  C1  1  -0.10679  0.00000  -0.58000  1
 C  C2  1  0.04013  0.00000  0.84664  1
 Mg  Mg1  1  0.46667  0.00000  0.13335  1
