CIF file written using JARVIS-Tools package.
data_BH2O2
_symmetry_space_group_name_H-M  'C2/m'
_cell_length_a       3.10388
_cell_length_b       3.10388
_cell_length_c       5.30352
_cell_angle_alpha    89.7107
_cell_angle_beta     89.7107
_cell_angle_gamma    65.8577

_symmetry_Int_Tables_number  12
_chemical_formula_structural  BH2O2
_chemical_formula_sum  BH2O2
_cell_volume  46.62454605241501
_cell_formula_units_Z  1
loop_
  _symmetry_equiv_pos_site_id
 _symmetry_equiv_pos_as_xyz
 1  'x, y, z'
loop_
 _atom_site_type_symbol
 _atom_site_label
 _atom_site_symmetry_multiplicity
 _atom_site_fract_x
 _atom_site_fract_y
 _atom_site_fract_z
 _atom_site_fract_occupancy
 B  B1  1  0.50000  0.50000  0.00000  1
 H  H1  1  0.54448  0.54448  0.58839  1
 H  H2  1  0.45552  0.45552  0.41161  1
 O  O1  1  0.64909  0.64909  0.80782  1
 O  O2  1  0.35091  0.35091  0.19218  1
