CIF file written using JARVIS-Tools package.
data_BiPS4
_symmetry_space_group_name_H-M  'I-4'
_cell_length_a       5.82988
_cell_length_b       5.82988
_cell_length_c       5.82988
_cell_angle_alpha    113.621
_cell_angle_beta     113.621
_cell_angle_gamma    101.457

_symmetry_Int_Tables_number  82
_chemical_formula_structural  BiPS4
_chemical_formula_sum  BiPS4
_cell_volume  150.33782387760468
_cell_formula_units_Z  1
loop_
  _symmetry_equiv_pos_site_id
 _symmetry_equiv_pos_as_xyz
 1  'x, y, z'
loop_
 _atom_site_type_symbol
 _atom_site_label
 _atom_site_symmetry_multiplicity
 _atom_site_fract_x
 _atom_site_fract_y
 _atom_site_fract_z
 _atom_site_fract_occupancy
 Bi  Bi1  1  0.00000  0.00000  0.00000  1
 P  P1  1  0.75000  0.25000  0.50000  1
 S  S1  1  0.76231  0.34975  0.88946  1
 S  S2  1  0.46029  0.87285  0.11054  1
 S  S3  1  0.65025  0.53971  0.41256  1
 S  S4  1  0.12715  0.23769  0.58744  1
