CIF file written using JARVIS-Tools package.
data_H3OF
_symmetry_space_group_name_H-M  'R3m'
_cell_length_a       3.42513
_cell_length_b       3.42513
_cell_length_c       3.42512
_cell_angle_alpha    74.4447
_cell_angle_beta     74.4447
_cell_angle_gamma    74.4446

_symmetry_Int_Tables_number  160
_chemical_formula_structural  H3OF
_chemical_formula_sum  H3OF
_cell_volume  36.44879036314076
_cell_formula_units_Z  1
loop_
  _symmetry_equiv_pos_site_id
 _symmetry_equiv_pos_as_xyz
 1  'x, y, z'
loop_
 _atom_site_type_symbol
 _atom_site_label
 _atom_site_symmetry_multiplicity
 _atom_site_fract_x
 _atom_site_fract_y
 _atom_site_fract_z
 _atom_site_fract_occupancy
 F  F1  1  0.02621  0.02621  0.02621  1
 H  H1  1  0.68362  0.27160  0.27160  1
 H  H2  1  0.27160  0.27160  0.68363  1
 H  H3  1  0.27160  0.68362  0.27160  1
 O  O1  1  0.45097  0.45097  0.45097  1
