CIF file written using JARVIS-Tools package.
data_NaInS
_symmetry_space_group_name_H-M  'P4mm'
_cell_length_a       5.12916
_cell_length_b       5.12916
_cell_length_c       7.89465
_cell_angle_alpha    90
_cell_angle_beta     90
_cell_angle_gamma    90

_symmetry_Int_Tables_number  99
_chemical_formula_structural  NaInS
_chemical_formula_sum  NaInS
_cell_volume  207.69491832287883
_cell_formula_units_Z  1
loop_
  _symmetry_equiv_pos_site_id
 _symmetry_equiv_pos_as_xyz
 1  'x, y, z'
loop_
 _atom_site_type_symbol
 _atom_site_label
 _atom_site_symmetry_multiplicity
 _atom_site_fract_x
 _atom_site_fract_y
 _atom_site_fract_z
 _atom_site_fract_occupancy
 In  In1  1  0.00000  0.00000  0.29783  1
 Na  Na1  1  0.00000  0.00000  0.68696  1
 S  S1  1  0.00000  0.00000  0.00645  1
