CIF file written using JARVIS-Tools package.
data_NdAs2Au
_symmetry_space_group_name_H-M  'Pnma'
_cell_length_a       4.11592
_cell_length_b       4.15063
_cell_length_c       20.6793
_cell_angle_alpha    90
_cell_angle_beta     90
_cell_angle_gamma    90

_symmetry_Int_Tables_number  62
_chemical_formula_structural  NdAs2Au
_chemical_formula_sum  Nd4As8Au4
_cell_volume  353.27912640981486
_cell_formula_units_Z  4
loop_
  _symmetry_equiv_pos_site_id
 _symmetry_equiv_pos_as_xyz
 1  'x, y, z'
loop_
 _atom_site_type_symbol
 _atom_site_label
 _atom_site_symmetry_multiplicity
 _atom_site_fract_x
 _atom_site_fract_y
 _atom_site_fract_z
 _atom_site_fract_occupancy
 As  As1  1  0.25000  0.70418  0.00171  1
 As  As2  1  0.75000  0.72813  0.15711  1
 As  As3  1  0.25000  0.22813  0.34289  1
 As  As4  1  0.75000  0.20418  0.49829  1
 As  As5  1  0.25000  0.79582  0.50171  1
 As  As6  1  0.75000  0.77187  0.65711  1
 As  As7  1  0.25000  0.27187  0.84289  1
 As  As8  1  0.75000  0.29582  0.99829  1
 Au  Au1  1  0.75000  0.20822  0.25147  1
 Au  Au2  1  0.25000  0.70822  0.24853  1
 Au  Au3  1  0.75000  0.29178  0.75147  1
 Au  Au4  1  0.25000  0.79178  0.74853  1
 Nd  Nd1  1  0.25000  0.22560  0.11804  1
 Nd  Nd2  1  0.75000  0.72560  0.38196  1
 Nd  Nd3  1  0.25000  0.27440  0.61804  1
 Nd  Nd4  1  0.75000  0.77440  0.88196  1
