CIF file written using JARVIS-Tools package.
data_NaAlAs
_symmetry_space_group_name_H-M  'Pm'
_cell_length_a       4.01317
_cell_length_b       6.59362
_cell_length_c       2.84723
_cell_angle_alpha    90
_cell_angle_beta     90
_cell_angle_gamma    93.2483

_symmetry_Int_Tables_number  6
_chemical_formula_structural  NaAlAs
_chemical_formula_sum  NaAlAs
_cell_volume  75.22040977781947
_cell_formula_units_Z  1
loop_
  _symmetry_equiv_pos_site_id
 _symmetry_equiv_pos_as_xyz
 1  'x, y, z'
loop_
 _atom_site_type_symbol
 _atom_site_label
 _atom_site_symmetry_multiplicity
 _atom_site_fract_x
 _atom_site_fract_y
 _atom_site_fract_z
 _atom_site_fract_occupancy
 Al  Al1  1  -0.10220  -0.17272  0.00000  1
 As  As1  1  0.42116  0.06485  0.00000  1
 Na  Na1  1  -0.04693  0.37990  0.00000  1
