CIF file written using JARVIS-Tools package.
data_HPbF
_symmetry_space_group_name_H-M  'P2_1/m'
_cell_length_a       4.85943
_cell_length_b       4.34532
_cell_length_c       5.62684
_cell_angle_alpha    90
_cell_angle_beta     113.418
_cell_angle_gamma    90

_symmetry_Int_Tables_number  11
_chemical_formula_structural  HPbF
_chemical_formula_sum  H2Pb2F2
_cell_volume  109.02793663245018
_cell_formula_units_Z  2
loop_
  _symmetry_equiv_pos_site_id
 _symmetry_equiv_pos_as_xyz
 1  'x, y, z'
loop_
 _atom_site_type_symbol
 _atom_site_label
 _atom_site_symmetry_multiplicity
 _atom_site_fract_x
 _atom_site_fract_y
 _atom_site_fract_z
 _atom_site_fract_occupancy
 F  F1  1  0.16413  0.75000  0.80728  1
 F  F2  1  0.83587  0.25000  0.19272  1
 H  H1  1  0.54868  0.25000  0.62650  1
 H  H2  1  0.45132  0.75000  0.37350  1
 Pb  Pb1  1  0.65025  0.75000  0.78561  1
 Pb  Pb2  1  0.34975  0.25000  0.21439  1
