CIF file written using JARVIS-Tools package.
data_H2C
_symmetry_space_group_name_H-M  'Pmm2'
_cell_length_a       3.01405
_cell_length_b       1.75913
_cell_length_c       3.14352
_cell_angle_alpha    90
_cell_angle_beta     90
_cell_angle_gamma    90

_symmetry_Int_Tables_number  25
_chemical_formula_structural  H2C
_chemical_formula_sum  H2C
_cell_volume  16.66727631429494
_cell_formula_units_Z  1
loop_
  _symmetry_equiv_pos_site_id
 _symmetry_equiv_pos_as_xyz
 1  'x, y, z'
loop_
 _atom_site_type_symbol
 _atom_site_label
 _atom_site_symmetry_multiplicity
 _atom_site_fract_x
 _atom_site_fract_y
 _atom_site_fract_z
 _atom_site_fract_occupancy
 C  C1  1  0.65340  0.00000  0.00000  1
 H  H1  1  -0.12670  0.00000  0.73053  1
 H  H2  1  -0.12670  0.00000  0.26947  1
