CIF file written using JARVIS-Tools package.
data_Li2FeSi3O8
_symmetry_space_group_name_H-M  'P1'
_cell_length_a       5.06306
_cell_length_b       6.15681
_cell_length_c       6.11016
_cell_angle_alpha    75.535
_cell_angle_beta     75.4458
_cell_angle_gamma    72.4323

_symmetry_Int_Tables_number  1
_chemical_formula_structural  Li2FeSi3O8
_chemical_formula_sum  Li2FeSi3O8
_cell_volume  172.60697227939477
_cell_formula_units_Z  1
loop_
  _symmetry_equiv_pos_site_id
 _symmetry_equiv_pos_as_xyz
 1  'x, y, z'
loop_
 _atom_site_type_symbol
 _atom_site_label
 _atom_site_symmetry_multiplicity
 _atom_site_fract_x
 _atom_site_fract_y
 _atom_site_fract_z
 _atom_site_fract_occupancy
 Fe  Fe1  1  0.65856  0.30166  0.36175  1
 Li  Li1  1  0.24831  0.64592  0.14747  1
 Li  Li2  1  0.77711  0.32787  0.86300  1
 O  O1  1  0.98362  0.18678  0.12337  1
 O  O2  1  0.06317  0.75208  0.84037  1
 O  O3  1  0.43842  0.33774  0.10776  1
 O  O4  1  0.34015  0.56198  0.46245  1
 O  O5  1  0.71241  0.13920  0.66838  1
 O  O6  1  0.28652  0.01029  0.45760  1
 O  O7  1  0.50627  0.89289  0.05945  1
 O  O8  1  0.62818  0.69517  0.70926  1
 Si  Si1  1  0.29758  0.12033  0.17937  1
 Si  Si2  1  0.33123  0.74643  0.60976  1
 Si  Si3  1  0.72847  0.88026  0.81139  1
