CIF file written using JARVIS-Tools package.
data_MgBe3
_symmetry_space_group_name_H-M  'P6_3/mmc'
_cell_length_a       5.47717
_cell_length_b       5.47717
_cell_length_c       3.57948
_cell_angle_alpha    90
_cell_angle_beta     90
_cell_angle_gamma    120

_symmetry_Int_Tables_number  194
_chemical_formula_structural  MgBe3
_chemical_formula_sum  Mg2Be6
_cell_volume  92.99571456036038
_cell_formula_units_Z  2
loop_
  _symmetry_equiv_pos_site_id
 _symmetry_equiv_pos_as_xyz
 1  'x, y, z'
loop_
 _atom_site_type_symbol
 _atom_site_label
 _atom_site_symmetry_multiplicity
 _atom_site_fract_x
 _atom_site_fract_y
 _atom_site_fract_z
 _atom_site_fract_occupancy
 Be  Be1  1  0.13096  0.26191  0.25000  1
 Be  Be2  1  0.13096  0.86904  0.25000  1
 Be  Be3  1  0.73809  0.86904  0.25000  1
 Be  Be4  1  0.26191  0.13096  0.75000  1
 Be  Be5  1  0.86904  0.13096  0.75000  1
 Be  Be6  1  0.86904  0.73809  0.75000  1
 Mg  Mg1  1  0.66667  0.33333  0.25000  1
 Mg  Mg2  1  0.33333  0.66667  0.75000  1
