CIF file written using JARVIS-Tools package.
data_Ba2Ti2TlO7
_symmetry_space_group_name_H-M  'P4/mmm'
_cell_length_a       3.89446
_cell_length_b       3.89446
_cell_length_c       13.5063
_cell_angle_alpha    90
_cell_angle_beta     90
_cell_angle_gamma    90

_symmetry_Int_Tables_number  123
_chemical_formula_structural  Ba2Ti2TlO7
_chemical_formula_sum  Ba2Ti2TlO7
_cell_volume  204.84812810755872
_cell_formula_units_Z  1
loop_
  _symmetry_equiv_pos_site_id
 _symmetry_equiv_pos_as_xyz
 1  'x, y, z'
loop_
 _atom_site_type_symbol
 _atom_site_label
 _atom_site_symmetry_multiplicity
 _atom_site_fract_x
 _atom_site_fract_y
 _atom_site_fract_z
 _atom_site_fract_occupancy
 Ba  Ba1  1  0.00000  0.00000  0.29404  1
 Ba  Ba2  1  0.00000  0.00000  0.70596  1
 O  O1  1  0.00000  0.00000  0.50000  1
 O  O2  1  0.00000  0.50000  0.14139  1
 O  O3  1  0.50000  0.00000  0.14139  1
 O  O4  1  0.00000  0.50000  0.85861  1
 O  O5  1  0.50000  0.00000  0.85861  1
 O  O6  1  0.50000  0.50000  0.29092  1
 O  O7  1  0.50000  0.50000  0.70908  1
 Ti  Ti1  1  0.50000  0.50000  0.15296  1
 Ti  Ti2  1  0.50000  0.50000  0.84704  1
 Tl  Tl1  1  0.50000  0.50000  0.50000  1
