CIF file written using JARVIS-Tools package.
data_LiCoS2
_symmetry_space_group_name_H-M  'P-3m1'
_cell_length_a       3.4125
_cell_length_b       5.63697
_cell_length_c       5.91066
_cell_angle_alpha    90.0013
_cell_angle_beta     90
_cell_angle_gamma    90

_symmetry_Int_Tables_number  164
_chemical_formula_structural  LiCoS2
_chemical_formula_sum  Li2Co2S4
_cell_volume  113.69825560686061
_cell_formula_units_Z  2
loop_
  _symmetry_equiv_pos_site_id
 _symmetry_equiv_pos_as_xyz
 1  'x, y, z'
loop_
 _atom_site_type_symbol
 _atom_site_label
 _atom_site_symmetry_multiplicity
 _atom_site_fract_x
 _atom_site_fract_y
 _atom_site_fract_z
 _atom_site_fract_occupancy
 Co  Co1  1  0.75002  0.00000  0.25000  1
 Co  Co2  1  0.24998  0.00000  0.75000  1
 Li  Li1  1  0.24988  0.50000  0.75000  1
 Li  Li2  1  0.75012  0.50000  0.25000  1
 S  S1  1  0.25002  0.20648  0.08334  1
 S  S2  1  0.74998  0.20648  0.58334  1
 S  S3  1  0.74998  0.79352  0.91666  1
 S  S4  1  0.25002  0.79352  0.41666  1
