CIF file written using JARVIS-Tools package.
data_LiSi2N3
_symmetry_space_group_name_H-M  'Cmc2_1'
_cell_length_a       4.81617
_cell_length_b       5.31264
_cell_length_c       5.33694
_cell_angle_alpha    119.85
_cell_angle_beta     90
_cell_angle_gamma    90

_symmetry_Int_Tables_number  36
_chemical_formula_structural  LiSi2N3
_chemical_formula_sum  Li2Si4N6
_cell_volume  118.43818385632554
_cell_formula_units_Z  2
loop_
  _symmetry_equiv_pos_site_id
 _symmetry_equiv_pos_as_xyz
 1  'x, y, z'
loop_
 _atom_site_type_symbol
 _atom_site_label
 _atom_site_symmetry_multiplicity
 _atom_site_fract_x
 _atom_site_fract_y
 _atom_site_fract_z
 _atom_site_fract_occupancy
 Li  Li1  1  0.00312  0.65862  -0.00000  1
 Li  Li2  1  0.50312  0.34138  0.00000  1
 N  N1  1  0.37515  0.94369  0.60669  1
 N  N2  1  0.87515  0.05631  0.39331  1
 N  N3  1  0.93100  0.27796  0.00000  1
 N  N4  1  0.43100  0.72204  -0.00000  1
 N  N5  1  0.37515  0.33700  0.39331  1
 N  N6  1  0.87515  0.66300  0.60669  1
 Si  Si1  1  0.01293  0.99890  0.66921  1
 Si  Si2  1  0.51293  0.00110  0.33079  1
 Si  Si3  1  0.51293  0.67031  0.66921  1
 Si  Si4  1  0.01293  0.32969  0.33079  1
