CIF file written using JARVIS-Tools package.
data_K2SiAs2
_symmetry_space_group_name_H-M  'Ibam'
_cell_length_a       6.40538
_cell_length_b       6.96328
_cell_length_c       8.15199
_cell_angle_alpha    115.283
_cell_angle_beta     113.133
_cell_angle_gamma    90

_symmetry_Int_Tables_number  72
_chemical_formula_structural  K2SiAs2
_chemical_formula_sum  K4Si2As4
_cell_volume  296.1141316180121
_cell_formula_units_Z  2
loop_
  _symmetry_equiv_pos_site_id
 _symmetry_equiv_pos_as_xyz
 1  'x, y, z'
loop_
 _atom_site_type_symbol
 _atom_site_label
 _atom_site_symmetry_multiplicity
 _atom_site_fract_x
 _atom_site_fract_y
 _atom_site_fract_z
 _atom_site_fract_occupancy
 As  As1  1  0.60238  0.77226  0.20476  1
 As  As2  1  0.10238  0.43250  0.20476  1
 As  As3  1  0.89762  0.56750  0.79524  1
 As  As4  1  0.39762  0.22774  0.79524  1
 K  K1  1  0.85635  0.01834  0.71269  1
 K  K2  1  0.35635  0.69435  0.71269  1
 K  K3  1  0.64365  0.30565  0.28731  1
 K  K4  1  0.14365  0.98166  0.28731  1
 Si  Si1  1  0.25000  0.50000  -0.00000  1
 Si  Si2  1  0.75000  0.50000  0.00000  1
