CIF file written using JARVIS-Tools package.
data_Na3ScF6
_symmetry_space_group_name_H-M  'P2_1/c'
_cell_length_a       5.58052
_cell_length_b       5.8382
_cell_length_c       9.75984
_cell_angle_alpha    90
_cell_angle_beta     123.827
_cell_angle_gamma    90

_symmetry_Int_Tables_number  14
_chemical_formula_structural  Na3ScF6
_chemical_formula_sum  Na6Sc2F2
_cell_volume  264.15043335367596
_cell_formula_units_Z  2
loop_
  _symmetry_equiv_pos_site_id
 _symmetry_equiv_pos_as_xyz
 1  'x, y, z'
loop_
 _atom_site_type_symbol
 _atom_site_label
 _atom_site_symmetry_multiplicity
 _atom_site_fract_x
 _atom_site_fract_y
 _atom_site_fract_z
 _atom_site_fract_occupancy
 F  F1  1  0.10347  0.06636  0.23199  1
 F  F2  1  0.75100  0.21249  0.42140  1
 F  F3  1  0.89653  0.93364  0.76801  1
 F  F4  1  0.24900  0.78751  0.57860  1
 F  F5  1  0.75100  0.28751  0.92140  1
 F  F6  1  0.24900  0.71249  0.07860  1
 F  F7  1  0.64609  0.82090  0.94381  1
 F  F8  1  0.64609  0.67910  0.44381  1
 F  F9  1  0.35391  0.17910  0.05619  1
 F  F10  1  0.10347  0.43364  0.73199  1
 F  F11  1  0.89653  0.56636  0.26801  1
 F  F12  1  0.35391  0.32090  0.55619  1
 Na  Na1  1  0.50000  0.00000  0.50000  1
 Na  Na2  1  0.50000  0.50000  0.00000  1
 Na  Na3  1  0.72327  0.94015  0.24192  1
 Na  Na4  1  0.27673  0.44015  0.25808  1
 Na  Na5  1  0.27673  0.05985  0.75808  1
 Na  Na6  1  0.72327  0.55985  0.74192  1
 Sc  Sc1  1  0.00000  0.00000  0.00000  1
 Sc  Sc2  1  0.00000  0.50000  0.50000  1
