CIF file written using JARVIS-Tools package.
data_FeAu
_symmetry_space_group_name_H-M  'R-3m'
_cell_length_a       4.75257
_cell_length_b       4.75257
_cell_length_c       4.75258
_cell_angle_alpha    34.3408
_cell_angle_beta     34.3409
_cell_angle_gamma    34.3409

_symmetry_Int_Tables_number  166
_chemical_formula_structural  FeAu
_chemical_formula_sum  FeAu
_cell_volume  30.46701121914861
_cell_formula_units_Z  1
loop_
  _symmetry_equiv_pos_site_id
 _symmetry_equiv_pos_as_xyz
 1  'x, y, z'
loop_
 _atom_site_type_symbol
 _atom_site_label
 _atom_site_symmetry_multiplicity
 _atom_site_fract_x
 _atom_site_fract_y
 _atom_site_fract_z
 _atom_site_fract_occupancy
 Au  Au1  1  0.00000  0.00000  0.00000  1
 Fe  Fe1  1  0.50000  0.50000  0.50000  1
