CIF file written using JARVIS-Tools package.
data_BaBeF4
_symmetry_space_group_name_H-M  'Pnma'
_cell_length_a       5.31212
_cell_length_b       7.08872
_cell_length_c       8.94487
_cell_angle_alpha    90
_cell_angle_beta     90
_cell_angle_gamma    90

_symmetry_Int_Tables_number  62
_chemical_formula_structural  BaBeF4
_chemical_formula_sum  Ba4Be4F6
_cell_volume  336.82877824069465
_cell_formula_units_Z  4
loop_
  _symmetry_equiv_pos_site_id
 _symmetry_equiv_pos_as_xyz
 1  'x, y, z'
loop_
 _atom_site_type_symbol
 _atom_site_label
 _atom_site_symmetry_multiplicity
 _atom_site_fract_x
 _atom_site_fract_y
 _atom_site_fract_z
 _atom_site_fract_occupancy
 Ba  Ba1  1  0.25000  0.15532  0.18658  1
 Ba  Ba2  1  0.75000  0.84468  0.81342  1
 Ba  Ba3  1  0.75000  0.65532  0.31342  1
 Ba  Ba4  1  0.25000  0.34468  0.68658  1
 Be  Be1  1  0.25000  0.80746  0.55515  1
 Be  Be2  1  0.25000  0.69254  0.05515  1
 Be  Be3  1  0.75000  0.30746  0.94485  1
 Be  Be4  1  0.75000  0.19254  0.44485  1
 F  F1  1  0.48820  0.82124  0.07973  1
 F  F2  1  0.01180  0.67876  0.57973  1
 F  F3  1  0.51180  0.32124  0.42027  1
 F  F4  1  0.01180  0.82124  0.07973  1
 F  F5  1  0.25000  0.87698  0.39069  1
 F  F6  1  0.75000  0.12302  0.60931  1
 F  F7  1  0.98820  0.17876  0.92027  1
 F  F8  1  0.75000  0.46250  0.82155  1
 F  F9  1  0.25000  0.96250  0.67845  1
 F  F10  1  0.75000  0.03750  0.32155  1
 F  F11  1  0.75000  0.37698  0.10931  1
 F  F12  1  0.25000  0.53750  0.17845  1
 F  F13  1  0.98820  0.32124  0.42027  1
 F  F14  1  0.48820  0.67876  0.57973  1
 F  F15  1  0.25000  0.62302  0.89069  1
 F  F16  1  0.51180  0.17876  0.92027  1
