CIF file written using JARVIS-Tools package.
data_PrPIr
_symmetry_space_group_name_H-M  'I4_1md'
_cell_length_a       4.1472
_cell_length_b       4.1472
_cell_length_c       7.73164
_cell_angle_alpha    105.557
_cell_angle_beta     105.557
_cell_angle_gamma    90

_symmetry_Int_Tables_number  109
_chemical_formula_structural  PrPIr
_chemical_formula_sum  Pr2P2Ir2
_cell_volume  123.04208838630329
_cell_formula_units_Z  2
loop_
  _symmetry_equiv_pos_site_id
 _symmetry_equiv_pos_as_xyz
 1  'x, y, z'
loop_
 _atom_site_type_symbol
 _atom_site_label
 _atom_site_symmetry_multiplicity
 _atom_site_fract_x
 _atom_site_fract_y
 _atom_site_fract_z
 _atom_site_fract_occupancy
 Ir  Ir1  1  0.41255  0.41255  0.82510  1
 Ir  Ir2  1  0.16255  0.66255  0.32510  1
 P  P1  1  0.32996  0.82996  0.65993  1
 P  P2  1  0.57996  0.57996  0.15993  1
 Pr  Pr1  1  0.75051  0.25051  0.50101  1
 Pr  Pr2  1  0.00051  0.00051  0.00101  1
