CIF file written using JARVIS-Tools package.
data_CaC2
_symmetry_space_group_name_H-M  'Pn-3m'
_cell_length_a       6.06039
_cell_length_b       6.06039
_cell_length_c       6.06039
_cell_angle_alpha    90
_cell_angle_beta     90
_cell_angle_gamma    90

_symmetry_Int_Tables_number  224
_chemical_formula_structural  CaC2
_chemical_formula_sum  Ca4C8
_cell_volume  222.58786027060145
_cell_formula_units_Z  4
loop_
  _symmetry_equiv_pos_site_id
 _symmetry_equiv_pos_as_xyz
 1  'x, y, z'
loop_
 _atom_site_type_symbol
 _atom_site_label
 _atom_site_symmetry_multiplicity
 _atom_site_fract_x
 _atom_site_fract_y
 _atom_site_fract_z
 _atom_site_fract_occupancy
 C  C1  1  0.59108  0.40892  0.59108  1
 C  C2  1  0.09108  0.90892  0.90892  1
 C  C3  1  0.09108  0.09108  0.09108  1
 C  C4  1  0.40892  0.59108  0.59108  1
 C  C5  1  0.59108  0.59108  0.40892  1
 C  C6  1  0.90892  0.90892  0.09108  1
 C  C7  1  0.40892  0.40892  0.40892  1
 C  C8  1  0.90892  0.09108  0.90892  1
 Ca  Ca1  1  0.25000  0.25000  0.75000  1
 Ca  Ca2  1  0.75000  0.75000  0.75000  1
 Ca  Ca3  1  0.25000  0.75000  0.25000  1
 Ca  Ca4  1  0.75000  0.25000  0.25000  1
