CIF file written using JARVIS-Tools package.
data_Sc
_symmetry_space_group_name_H-M  'P6_222'
_cell_length_a       3.2141
_cell_length_b       3.2141
_cell_length_c       16.0662
_cell_angle_alpha    90
_cell_angle_beta     90
_cell_angle_gamma    120

_symmetry_Int_Tables_number  180
_chemical_formula_structural  Sc
_chemical_formula_sum  Sc6
_cell_volume  143.73565873194912
_cell_formula_units_Z  6
loop_
  _symmetry_equiv_pos_site_id
 _symmetry_equiv_pos_as_xyz
 1  'x, y, z'
loop_
 _atom_site_type_symbol
 _atom_site_label
 _atom_site_symmetry_multiplicity
 _atom_site_fract_x
 _atom_site_fract_y
 _atom_site_fract_z
 _atom_site_fract_occupancy
 Sc  Sc1  1  0.50012  0.00000  0.50000  1
 Sc  Sc2  1  0.49988  0.00000  0.00000  1
 Sc  Sc3  1  0.00000  0.49988  0.33333  1
 Sc  Sc4  1  0.49988  0.49988  0.16667  1
 Sc  Sc5  1  -0.00000  0.50012  0.83333  1
 Sc  Sc6  1  0.50012  0.50012  0.66667  1
