CIF file written using JARVIS-Tools package.
data_NaLiAs2S4
_symmetry_space_group_name_H-M  'P1'
_cell_length_a       5.52478
_cell_length_b       5.55924
_cell_length_c       6.58863
_cell_angle_alpha    112.882
_cell_angle_beta     111.629
_cell_angle_gamma    89.7363

_symmetry_Int_Tables_number  1
_chemical_formula_structural  NaLiAs2S4
_chemical_formula_sum  NaLiAs2S4
_cell_volume  171.02032255201522
_cell_formula_units_Z  1
loop_
  _symmetry_equiv_pos_site_id
 _symmetry_equiv_pos_as_xyz
 1  'x, y, z'
loop_
 _atom_site_type_symbol
 _atom_site_label
 _atom_site_symmetry_multiplicity
 _atom_site_fract_x
 _atom_site_fract_y
 _atom_site_fract_z
 _atom_site_fract_occupancy
 As  As1  1  0.15622  0.47354  0.39333  1
 As  As2  1  0.65490  0.90940  0.39032  1
 Li  Li1  1  0.97690  0.74890  0.96217  1
 Na  Na1  1  0.47538  0.22020  0.95121  1
 S  S1  1  0.50901  0.73915  -0.00559  1
 S  S2  1  0.99645  0.26156  -0.00278  1
 S  S3  1  0.24870  0.91752  0.44412  1
 S  S4  1  0.77224  0.53888  0.48554  1
