CIF file written using JARVIS-Tools package.
data_TmPO4
_symmetry_space_group_name_H-M  'I4_1/amd'
_cell_length_a       5.6803
_cell_length_b       5.6803
_cell_length_c       5.6803
_cell_angle_alpha    106.21
_cell_angle_beta     106.21
_cell_angle_gamma    116.212

_symmetry_Int_Tables_number  141
_chemical_formula_structural  TmPO4
_chemical_formula_sum  Tm2P2O8
_cell_volume  139.60730283180513
_cell_formula_units_Z  2
loop_
  _symmetry_equiv_pos_site_id
 _symmetry_equiv_pos_as_xyz
 1  'x, y, z'
loop_
 _atom_site_type_symbol
 _atom_site_label
 _atom_site_symmetry_multiplicity
 _atom_site_fract_x
 _atom_site_fract_y
 _atom_site_fract_z
 _atom_site_fract_occupancy
 O  O1  1  0.78702  0.36010  0.07308  1
 O  O2  1  0.71394  0.78702  0.92692  1
 O  O3  1  0.36010  0.78702  0.57308  1
 O  O4  1  0.78702  0.71394  0.42692  1
 O  O5  1  0.28606  0.21298  0.07308  1
 O  O6  1  0.21298  0.63990  0.92692  1
 O  O7  1  0.21298  0.28606  0.57308  1
 O  O8  1  0.63990  0.21298  0.42692  1
 P  P1  1  0.37500  0.62500  0.75000  1
 P  P2  1  0.62500  0.37500  0.25000  1
 Tm  Tm1  1  0.12500  0.87500  0.25000  1
 Tm  Tm2  1  0.87500  0.12500  0.75000  1
