CIF file written using JARVIS-Tools package.
data_Na2CoGeO4
_symmetry_space_group_name_H-M  'Pc'
_cell_length_a       4.74494
_cell_length_b       4.60371
_cell_length_c       9.61968
_cell_angle_alpha    90
_cell_angle_beta     120.024
_cell_angle_gamma    90

_symmetry_Int_Tables_number  7
_chemical_formula_structural  Na2CoGeO4
_chemical_formula_sum  Na4Co2Ge2O8
_cell_volume  181.93866978618559
_cell_formula_units_Z  2
loop_
  _symmetry_equiv_pos_site_id
 _symmetry_equiv_pos_as_xyz
 1  'x, y, z'
loop_
 _atom_site_type_symbol
 _atom_site_label
 _atom_site_symmetry_multiplicity
 _atom_site_fract_x
 _atom_site_fract_y
 _atom_site_fract_z
 _atom_site_fract_occupancy
 Co  Co1  1  0.04151  0.75956  0.50235  1
 Co  Co2  1  0.04151  0.24044  0.00235  1
 Ge  Ge1  1  0.74683  0.30624  0.25228  1
 Ge  Ge2  1  0.74683  0.69376  0.75228  1
 Na  Na1  1  0.28325  0.76012  0.25305  1
 Na  Na2  1  0.55336  0.76835  0.00252  1
 Na  Na3  1  0.55336  0.23165  0.50252  1
 Na  Na4  1  0.28325  0.23988  0.75305  1
 O  O1  1  0.02897  0.81174  0.95832  1
 O  O2  1  0.67494  0.74443  0.54892  1
 O  O3  1  0.34742  0.24823  0.22951  1
 O  O4  1  0.81282  0.30137  0.77624  1
 O  O5  1  0.81282  0.69863  0.27624  1
 O  O6  1  0.02897  0.18826  0.45832  1
 O  O7  1  0.34742  0.75177  0.72951  1
 O  O8  1  0.67494  0.25557  0.04892  1
