CIF file written using JARVIS-Tools package.
data_YbEr2Se4
_symmetry_space_group_name_H-M  'P2/m'
_cell_length_a       4.07992
_cell_length_b       6.96377
_cell_length_c       7.10196
_cell_angle_alpha    71.818
_cell_angle_beta     90
_cell_angle_gamma    90

_symmetry_Int_Tables_number  10
_chemical_formula_structural  YbEr2Se4
_chemical_formula_sum  YbEr2Se4
_cell_volume  191.7034639076059
_cell_formula_units_Z  1
loop_
  _symmetry_equiv_pos_site_id
 _symmetry_equiv_pos_as_xyz
 1  'x, y, z'
loop_
 _atom_site_type_symbol
 _atom_site_label
 _atom_site_symmetry_multiplicity
 _atom_site_fract_x
 _atom_site_fract_y
 _atom_site_fract_z
 _atom_site_fract_occupancy
 Er  Er1  1  0.00000  0.00000  0.00000  1
 Er  Er2  1  0.50000  0.50000  0.00000  1
 Se  Se1  1  0.50000  0.75810  0.24473  1
 Se  Se2  1  0.00000  0.25617  0.23600  1
 Se  Se3  1  0.50000  0.24190  0.75527  1
 Se  Se4  1  0.00000  0.74383  0.76400  1
 Yb  Yb1  1  0.00000  0.50000  0.50000  1
