CIF file written using JARVIS-Tools package.
data_NiPbF6
_symmetry_space_group_name_H-M  'R-3'
_cell_length_a       5.65565
_cell_length_b       5.65564
_cell_length_c       5.65564
_cell_angle_alpha    54.1451
_cell_angle_beta     54.1452
_cell_angle_gamma    54.1452

_symmetry_Int_Tables_number  148
_chemical_formula_structural  NiPbF6
_chemical_formula_sum  NiPbF6
_cell_volume  110.43389508149029
_cell_formula_units_Z  1
loop_
  _symmetry_equiv_pos_site_id
 _symmetry_equiv_pos_as_xyz
 1  'x, y, z'
loop_
 _atom_site_type_symbol
 _atom_site_label
 _atom_site_symmetry_multiplicity
 _atom_site_fract_x
 _atom_site_fract_y
 _atom_site_fract_z
 _atom_site_fract_occupancy
 F  F1  1  0.38358  0.01415  0.82037  1
 F  F2  1  0.01415  0.82037  0.38358  1
 F  F3  1  0.17963  0.61642  0.98585  1
 F  F4  1  0.98585  0.17963  0.61642  1
 F  F5  1  0.61642  0.98585  0.17963  1
 F  F6  1  0.82037  0.38358  0.01415  1
 Ni  Ni1  1  0.00000  0.00000  0.00000  1
 Pb  Pb1  1  0.50000  0.50000  0.50000  1
