CIF file written using JARVIS-Tools package.
data_Li
_symmetry_space_group_name_H-M  'P4_132'
_cell_length_a       4.44974
_cell_length_b       4.44974
_cell_length_c       4.44974
_cell_angle_alpha    90
_cell_angle_beta     90
_cell_angle_gamma    90

_symmetry_Int_Tables_number  213
_chemical_formula_structural  Li
_chemical_formula_sum  Li4
_cell_volume  88.10572763546207
_cell_formula_units_Z  4
loop_
  _symmetry_equiv_pos_site_id
 _symmetry_equiv_pos_as_xyz
 1  'x, y, z'
loop_
 _atom_site_type_symbol
 _atom_site_label
 _atom_site_symmetry_multiplicity
 _atom_site_fract_x
 _atom_site_fract_y
 _atom_site_fract_z
 _atom_site_fract_occupancy
 Li  Li1  1  0.87497  0.12503  0.62503  1
 Li  Li2  1  0.37497  0.37497  0.37497  1
 Li  Li3  1  0.12503  0.62503  0.87497  1
 Li  Li4  1  0.62503  0.87497  0.12503  1
