CIF file written using JARVIS-Tools package.
data_YbAgSb
_symmetry_space_group_name_H-M  'Pnma'
_cell_length_a       4.6029
_cell_length_b       7.62496
_cell_length_c       8.34741
_cell_angle_alpha    90
_cell_angle_beta     90
_cell_angle_gamma    90

_symmetry_Int_Tables_number  62
_chemical_formula_structural  YbAgSb
_chemical_formula_sum  Yb4Ag4Sb4
_cell_volume  292.9681887905167
_cell_formula_units_Z  4
loop_
  _symmetry_equiv_pos_site_id
 _symmetry_equiv_pos_as_xyz
 1  'x, y, z'
loop_
 _atom_site_type_symbol
 _atom_site_label
 _atom_site_symmetry_multiplicity
 _atom_site_fract_x
 _atom_site_fract_y
 _atom_site_fract_z
 _atom_site_fract_occupancy
 Ag  Ag1  1  0.25000  0.64648  0.56860  1
 Ag  Ag2  1  0.75000  0.35352  0.43140  1
 Ag  Ag3  1  0.25000  0.14648  0.93140  1
 Ag  Ag4  1  0.75000  0.85352  0.06860  1
 Sb  Sb1  1  0.75000  0.74571  0.39272  1
 Sb  Sb2  1  0.25000  0.25429  0.60728  1
 Sb  Sb3  1  0.75000  0.24571  0.10728  1
 Sb  Sb4  1  0.25000  0.75429  0.89272  1
 Yb  Yb1  1  0.25000  0.51742  0.20302  1
 Yb  Yb2  1  0.75000  0.48258  0.79698  1
 Yb  Yb3  1  0.25000  0.01742  0.29698  1
 Yb  Yb4  1  0.75000  0.98258  0.70302  1
