CIF file written using JARVIS-Tools package.
data_CeSiOs
_symmetry_space_group_name_H-M  'P4/nmm'
_cell_length_a       4.22853
_cell_length_b       4.22853
_cell_length_c       6.75895
_cell_angle_alpha    90
_cell_angle_beta     90
_cell_angle_gamma    90

_symmetry_Int_Tables_number  129
_chemical_formula_structural  CeSiOs
_chemical_formula_sum  Ce2Si2Os2
_cell_volume  120.85340208751629
_cell_formula_units_Z  2
loop_
  _symmetry_equiv_pos_site_id
 _symmetry_equiv_pos_as_xyz
 1  'x, y, z'
loop_
 _atom_site_type_symbol
 _atom_site_label
 _atom_site_symmetry_multiplicity
 _atom_site_fract_x
 _atom_site_fract_y
 _atom_site_fract_z
 _atom_site_fract_occupancy
 Ce  Ce1  1  0.00000  0.50000  0.67971  1
 Ce  Ce2  1  0.50000  0.00000  0.32029  1
 Os  Os1  1  0.50000  0.50000  0.00000  1
 Os  Os2  1  0.00000  0.00000  0.00000  1
 Si  Si1  1  0.00000  0.50000  0.19215  1
 Si  Si2  1  0.50000  0.00000  0.80785  1
