CIF file written using JARVIS-Tools package.
data_Nb3Se4
_symmetry_space_group_name_H-M  'P6_3/m'
_cell_length_a       10.1436
_cell_length_b       10.1436
_cell_length_c       3.49609
_cell_angle_alpha    90
_cell_angle_beta     90
_cell_angle_gamma    120

_symmetry_Int_Tables_number  176
_chemical_formula_structural  Nb3Se4
_chemical_formula_sum  Nb6Se8
_cell_volume  311.5299817559244
_cell_formula_units_Z  2
loop_
  _symmetry_equiv_pos_site_id
 _symmetry_equiv_pos_as_xyz
 1  'x, y, z'
loop_
 _atom_site_type_symbol
 _atom_site_label
 _atom_site_symmetry_multiplicity
 _atom_site_fract_x
 _atom_site_fract_y
 _atom_site_fract_z
 _atom_site_fract_occupancy
 Nb  Nb1  1  0.10716  0.61999  0.75000  1
 Nb  Nb2  1  0.48717  0.10716  0.25000  1
 Nb  Nb3  1  0.61999  0.51283  0.25000  1
 Nb  Nb4  1  0.38001  0.48717  0.75000  1
 Nb  Nb5  1  0.51283  0.89284  0.75000  1
 Nb  Nb6  1  0.89284  0.38001  0.25000  1
 Se  Se1  1  0.27909  0.93955  0.75000  1
 Se  Se2  1  0.33954  0.27909  0.25000  1
 Se  Se3  1  0.93955  0.66046  0.25000  1
 Se  Se4  1  0.06045  0.33954  0.75000  1
 Se  Se5  1  0.66046  0.72091  0.75000  1
 Se  Se6  1  0.72091  0.06045  0.25000  1
 Se  Se7  1  0.66667  0.33333  0.75000  1
 Se  Se8  1  0.33333  0.66667  0.25000  1
