CIF file written using JARVIS-Tools package.
data_PRu
_symmetry_space_group_name_H-M  'Pnma'
_cell_length_a       3.20485
_cell_length_b       5.58206
_cell_length_c       6.19319
_cell_angle_alpha    90
_cell_angle_beta     90
_cell_angle_gamma    90

_symmetry_Int_Tables_number  62
_chemical_formula_structural  PRu
_chemical_formula_sum  P4Ru4
_cell_volume  110.79434253042317
_cell_formula_units_Z  4
loop_
  _symmetry_equiv_pos_site_id
 _symmetry_equiv_pos_as_xyz
 1  'x, y, z'
loop_
 _atom_site_type_symbol
 _atom_site_label
 _atom_site_symmetry_multiplicity
 _atom_site_fract_x
 _atom_site_fract_y
 _atom_site_fract_z
 _atom_site_fract_occupancy
 P  P1  1  0.25000  0.69293  0.06669  1
 P  P2  1  0.75000  0.30707  0.93331  1
 P  P3  1  0.25000  0.19293  0.43331  1
 P  P4  1  0.75000  0.80707  0.56669  1
 Ru  Ru1  1  0.25000  0.48897  0.70678  1
 Ru  Ru2  1  0.75000  0.51103  0.29322  1
 Ru  Ru3  1  0.25000  0.98897  0.79322  1
 Ru  Ru4  1  0.75000  0.01103  0.20678  1
