CIF file written using JARVIS-Tools package.
data_NdBO3
_symmetry_space_group_name_H-M  'P-1'
_cell_length_a       6.31708
_cell_length_b       6.59726
_cell_length_c       6.61865
_cell_angle_alpha    93.765
_cell_angle_beta     108.67
_cell_angle_gamma    108.682

_symmetry_Int_Tables_number  2
_chemical_formula_structural  NdBO3
_chemical_formula_sum  Nd4B4O2
_cell_volume  243.1653432441165
_cell_formula_units_Z  4
loop_
  _symmetry_equiv_pos_site_id
 _symmetry_equiv_pos_as_xyz
 1  'x, y, z'
loop_
 _atom_site_type_symbol
 _atom_site_label
 _atom_site_symmetry_multiplicity
 _atom_site_fract_x
 _atom_site_fract_y
 _atom_site_fract_z
 _atom_site_fract_occupancy
 B  B1  1  0.50589  0.27827  0.27813  1
 B  B2  1  0.49411  0.72173  0.72187  1
 B  B3  1  0.96996  0.75683  0.20721  1
 B  B4  1  0.03004  0.24317  0.79279  1
 Nd  Nd1  1  0.43215  0.80859  0.21128  1
 Nd  Nd2  1  0.56785  0.19141  0.78872  1
 Nd  Nd3  1  0.07285  0.27659  0.35868  1
 Nd  Nd4  1  0.92715  0.72341  0.64132  1
 O  O1  1  0.50673  0.51930  0.71434  1
 O  O2  1  0.91446  0.35178  0.64362  1
 O  O3  1  0.14798  0.12552  0.72218  1
 O  O4  1  0.85202  0.87448  0.27782  1
 O  O5  1  0.49327  0.48070  0.28566  1
 O  O6  1  0.61746  0.87026  0.61864  1
 O  O7  1  0.01030  0.75755  0.01678  1
 O  O8  1  0.98970  0.24245  0.98322  1
 O  O9  1  0.37156  0.79941  0.82970  1
 O  O10  1  0.38254  0.12974  0.38136  1
 O  O11  1  0.62844  0.20059  0.17029  1
 O  O12  1  0.08554  0.64822  0.35638  1
