CIF file written using JARVIS-Tools package.
data_Fe2B4Mo
_symmetry_space_group_name_H-M  'Immm'
_cell_length_a       2.98342
_cell_length_b       3.1139
_cell_length_c       6.64274
_cell_angle_alpha    103.555
_cell_angle_beta     102.977
_cell_angle_gamma    90

_symmetry_Int_Tables_number  71
_chemical_formula_structural  Fe2B4Mo
_chemical_formula_sum  Fe2B4Mo
_cell_volume  58.36980219819428
_cell_formula_units_Z  1
loop_
  _symmetry_equiv_pos_site_id
 _symmetry_equiv_pos_as_xyz
 1  'x, y, z'
loop_
 _atom_site_type_symbol
 _atom_site_label
 _atom_site_symmetry_multiplicity
 _atom_site_fract_x
 _atom_site_fract_y
 _atom_site_fract_z
 _atom_site_fract_occupancy
 B  B1  1  0.92533  0.42533  0.85065  1
 B  B2  1  0.07467  0.57467  0.14935  1
 B  B3  1  0.34782  0.34782  0.69564  1
 B  B4  1  0.65218  0.65218  0.30436  1
 Fe  Fe1  1  0.81576  0.81576  0.63152  1
 Fe  Fe2  1  0.18424  0.18424  0.36848  1
 Mo  Mo1  1  0.50000  -0.00000  -0.00000  1
