CIF file written using JARVIS-Tools package.
data_Y2V2O7
_symmetry_space_group_name_H-M  'C2/m'
_cell_length_a       5.79301
_cell_length_b       5.79301
_cell_length_c       5.15907
_cell_angle_alpha    83.7107
_cell_angle_beta     96.2893
_cell_angle_gamma    71.1449

_symmetry_Int_Tables_number  12
_chemical_formula_structural  Y2V2O7
_chemical_formula_sum  Y2V2O7
_cell_volume  160.91072730742266
_cell_formula_units_Z  1
loop_
  _symmetry_equiv_pos_site_id
 _symmetry_equiv_pos_as_xyz
 1  'x, y, z'
loop_
 _atom_site_type_symbol
 _atom_site_label
 _atom_site_symmetry_multiplicity
 _atom_site_fract_x
 _atom_site_fract_y
 _atom_site_fract_z
 _atom_site_fract_occupancy
 O  O1  1  0.06999  0.60740  0.71051  1
 O  O2  1  0.39260  0.93001  0.71051  1
 O  O3  1  0.41482  0.58518  0.22290  1
 O  O4  1  0.58518  0.41482  0.77710  1
 O  O5  1  0.00000  0.00000  0.00000  1
 O  O6  1  0.60740  0.06999  0.28949  1
 O  O7  1  0.93001  0.39260  0.28949  1
 V  V1  1  0.24111  0.75889  0.90361  1
 V  V2  1  0.75889  0.24111  0.09639  1
 Y  Y1  1  0.31062  0.31062  0.50000  1
 Y  Y2  1  0.68938  0.68938  0.50000  1
