CIF file written using JARVIS-Tools package.
data_Li4SiO4
_symmetry_space_group_name_H-M  'P-1'
_cell_length_a       5.02237
_cell_length_b       5.02573
_cell_length_c       7.5125
_cell_angle_alpha    82.7794
_cell_angle_beta     70.9236
_cell_angle_gamma    68.2448

_symmetry_Int_Tables_number  2
_chemical_formula_structural  Li4SiO4
_chemical_formula_sum  Li8Si2O8
_cell_volume  166.44364160661632
_cell_formula_units_Z  2
loop_
  _symmetry_equiv_pos_site_id
 _symmetry_equiv_pos_as_xyz
 1  'x, y, z'
loop_
 _atom_site_type_symbol
 _atom_site_label
 _atom_site_symmetry_multiplicity
 _atom_site_fract_x
 _atom_site_fract_y
 _atom_site_fract_z
 _atom_site_fract_occupancy
 Li  Li1  1  0.76266  0.73506  0.00620  1
 Li  Li2  1  0.23734  0.26494  0.99380  1
 Li  Li3  1  0.51021  0.76191  0.44522  1
 Li  Li4  1  0.48979  0.23809  0.55478  1
 Li  Li5  1  0.08074  0.25052  0.40838  1
 Li  Li6  1  0.91926  0.74948  0.59162  1
 Li  Li7  1  0.61082  0.21276  0.19447  1
 Li  Li8  1  0.38918  0.78724  0.80553  1
 O  O1  1  0.18283  0.03089  0.63069  1
 O  O2  1  0.81717  0.96911  0.36931  1
 O  O3  1  0.69896  0.48136  0.62593  1
 O  O4  1  0.30104  0.51864  0.37407  1
 O  O5  1  0.84848  0.33494  0.95548  1
 O  O6  1  0.63797  0.01026  0.80643  1
 O  O7  1  0.15152  0.66506  0.04452  1
 O  O8  1  0.36203  0.98974  0.19357  1
 Si  Si1  1  0.84123  0.21765  0.76437  1
 Si  Si2  1  0.15877  0.78235  0.23563  1
