CIF file written using JARVIS-Tools package.
data_Nb2Tl5S4Cl9
_symmetry_space_group_name_H-M  'Immm'
_cell_length_a       6.99898
_cell_length_b       9.5294
_cell_length_c       9.86668
_cell_angle_alpha    118.875
_cell_angle_beta     110.776
_cell_angle_gamma    90.0006

_symmetry_Int_Tables_number  71
_chemical_formula_structural  Nb2Tl5S4Cl9
_chemical_formula_sum  Nb2Tl5S4Cl9
_cell_volume  526.8572164693264
_cell_formula_units_Z  1
loop_
  _symmetry_equiv_pos_site_id
 _symmetry_equiv_pos_as_xyz
 1  'x, y, z'
loop_
 _atom_site_type_symbol
 _atom_site_label
 _atom_site_symmetry_multiplicity
 _atom_site_fract_x
 _atom_site_fract_y
 _atom_site_fract_z
 _atom_site_fract_occupancy
 Cl  Cl1  1  0.86259  0.12736  0.72519  1
 Cl  Cl2  1  0.03569  0.78859  0.57718  1
 Cl  Cl3  1  0.96431  0.21141  0.42282  1
 Cl  Cl4  1  0.13740  0.40218  0.27482  1
 Cl  Cl5  1  0.54149  0.78858  0.57717  1
 Cl  Cl6  1  0.13741  0.87264  0.27481  1
 Cl  Cl7  1  0.45851  0.21142  0.42283  1
 Cl  Cl8  1  0.50000  0.50000  -0.00000  1
 Cl  Cl9  1  0.86260  0.59782  0.72518  1
 Nb  Nb1  1  0.90718  0.90718  0.81435  1
 Nb  Nb2  1  0.09282  0.09282  0.18565  1
 S  S1  1  0.74360  0.10617  0.00000  1
 S  S2  1  0.74360  0.89383  -0.00001  1
 S  S3  1  0.25640  0.89383  -0.00000  1
 S  S4  1  0.25640  0.10617  0.00001  1
 Tl  Tl1  1  0.00000  0.50000  0.00000  1
 Tl  Tl2  1  0.66532  0.88223  0.33066  1
 Tl  Tl3  1  0.33468  0.11777  0.66934  1
 Tl  Tl4  1  0.33467  0.55157  0.66933  1
 Tl  Tl5  1  0.66533  0.44843  0.33067  1
