CIF file written using JARVIS-Tools package.
data_HoNi
_symmetry_space_group_name_H-M  'Pnma'
_cell_length_a       4.18949
_cell_length_b       5.34725
_cell_length_c       6.90382
_cell_angle_alpha    90
_cell_angle_beta     90
_cell_angle_gamma    90

_symmetry_Int_Tables_number  62
_chemical_formula_structural  HoNi
_chemical_formula_sum  Ho4Ni4
_cell_volume  154.6610653763263
_cell_formula_units_Z  4
loop_
  _symmetry_equiv_pos_site_id
 _symmetry_equiv_pos_as_xyz
 1  'x, y, z'
loop_
 _atom_site_type_symbol
 _atom_site_label
 _atom_site_symmetry_multiplicity
 _atom_site_fract_x
 _atom_site_fract_y
 _atom_site_fract_z
 _atom_site_fract_occupancy
 Ho  Ho1  1  0.25000  0.36484  0.68079  1
 Ho  Ho2  1  0.75000  0.63516  0.31921  1
 Ho  Ho3  1  0.75000  0.86484  0.81921  1
 Ho  Ho4  1  0.25000  0.13516  0.18079  1
 Ni  Ni1  1  0.25000  0.86675  0.53860  1
 Ni  Ni2  1  0.75000  0.13325  0.46140  1
 Ni  Ni3  1  0.75000  0.36675  0.96140  1
 Ni  Ni4  1  0.25000  0.63325  0.03860  1
