CIF file written using JARVIS-Tools package.
data_Dy3Pd2
_symmetry_space_group_name_H-M  'P4/mbm'
_cell_length_a       7.76247
_cell_length_b       7.76247
_cell_length_c       3.90045
_cell_angle_alpha    90
_cell_angle_beta     90
_cell_angle_gamma    90

_symmetry_Int_Tables_number  127
_chemical_formula_structural  Dy3Pd2
_chemical_formula_sum  Dy6Pd4
_cell_volume  235.02579373271058
_cell_formula_units_Z  2
loop_
  _symmetry_equiv_pos_site_id
 _symmetry_equiv_pos_as_xyz
 1  'x, y, z'
loop_
 _atom_site_type_symbol
 _atom_site_label
 _atom_site_symmetry_multiplicity
 _atom_site_fract_x
 _atom_site_fract_y
 _atom_site_fract_z
 _atom_site_fract_occupancy
 Dy  Dy1  1  0.83450  0.66550  0.50000  1
 Dy  Dy2  1  0.33450  0.83450  0.50000  1
 Dy  Dy3  1  0.16550  0.33450  0.50000  1
 Dy  Dy4  1  0.66550  0.16550  0.50000  1
 Dy  Dy5  1  0.50000  0.50000  0.00000  1
 Dy  Dy6  1  0.00000  0.00000  0.00000  1
 Pd  Pd1  1  0.13232  0.63232  0.00000  1
 Pd  Pd2  1  0.63232  0.86768  0.00000  1
 Pd  Pd3  1  0.36768  0.13232  0.00000  1
 Pd  Pd4  1  0.86768  0.36768  0.00000  1
