CIF file written using JARVIS-Tools package.
data_TbH3C3O6
_symmetry_space_group_name_H-M  'R3m'
_cell_length_a       6.17313
_cell_length_b       6.17313
_cell_length_c       6.17313
_cell_angle_alpha    115.554
_cell_angle_beta     115.554
_cell_angle_gamma    115.554

_symmetry_Int_Tables_number  160
_chemical_formula_structural  TbH3C3O6
_chemical_formula_sum  TbH3C3O6
_cell_volume  124.75713379360354
_cell_formula_units_Z  1
loop_
  _symmetry_equiv_pos_site_id
 _symmetry_equiv_pos_as_xyz
 1  'x, y, z'
loop_
 _atom_site_type_symbol
 _atom_site_label
 _atom_site_symmetry_multiplicity
 _atom_site_fract_x
 _atom_site_fract_y
 _atom_site_fract_z
 _atom_site_fract_occupancy
 C  C1  1  0.14531  0.60657  0.60657  1
 C  C2  1  0.60657  0.60657  0.14531  1
 C  C3  1  0.60657  0.14531  0.60657  1
 H  H1  1  0.84297  0.35878  0.35878  1
 H  H2  1  0.35878  0.35878  0.84297  1
 H  H3  1  0.35878  0.84297  0.35878  1
 O  O1  1  0.27967  0.88546  0.88546  1
 O  O2  1  0.88546  0.88546  0.27967  1
 O  O3  1  0.88546  0.27967  0.88546  1
 O  O4  1  0.33755  0.58987  0.58987  1
 O  O5  1  0.58987  0.58987  0.33755  1
 O  O6  1  0.58987  0.33755  0.58987  1
 Tb  Tb1  1  0.00014  0.00014  0.00014  1
