CIF file written using JARVIS-Tools package.
data_PrSnPt
_symmetry_space_group_name_H-M  'P-62m'
_cell_length_a       7.69151
_cell_length_b       7.69151
_cell_length_c       4.15536
_cell_angle_alpha    90
_cell_angle_beta     90
_cell_angle_gamma    120

_symmetry_Int_Tables_number  189
_chemical_formula_structural  PrSnPt
_chemical_formula_sum  Pr3Sn3Pt3
_cell_volume  212.89356591286256
_cell_formula_units_Z  3
loop_
  _symmetry_equiv_pos_site_id
 _symmetry_equiv_pos_as_xyz
 1  'x, y, z'
loop_
 _atom_site_type_symbol
 _atom_site_label
 _atom_site_symmetry_multiplicity
 _atom_site_fract_x
 _atom_site_fract_y
 _atom_site_fract_z
 _atom_site_fract_occupancy
 Pr  Pr1  1  0.59086  0.59086  0.00000  1
 Pr  Pr2  1  0.40914  0.00000  0.00000  1
 Pr  Pr3  1  0.00000  0.40914  0.00000  1
 Pt  Pt1  1  0.66667  0.33333  0.50000  1
 Pt  Pt2  1  0.00000  0.00000  0.00000  1
 Pt  Pt3  1  0.33333  0.66667  0.50000  1
 Sn  Sn1  1  0.00000  0.74688  0.50000  1
 Sn  Sn2  1  0.25312  0.25312  0.50000  1
 Sn  Sn3  1  0.74688  0.00000  0.50000  1
