CIF file written using JARVIS-Tools package.
data_HfSnRh
_symmetry_space_group_name_H-M  'P-62c'
_cell_length_a       7.36639
_cell_length_b       7.36639
_cell_length_c       7.23218
_cell_angle_alpha    90
_cell_angle_beta     90
_cell_angle_gamma    120

_symmetry_Int_Tables_number  190
_chemical_formula_structural  HfSnRh
_chemical_formula_sum  Hf6Sn6Rh6
_cell_volume  339.8673219298415
_cell_formula_units_Z  6
loop_
  _symmetry_equiv_pos_site_id
 _symmetry_equiv_pos_as_xyz
 1  'x, y, z'
loop_
 _atom_site_type_symbol
 _atom_site_label
 _atom_site_symmetry_multiplicity
 _atom_site_fract_x
 _atom_site_fract_y
 _atom_site_fract_z
 _atom_site_fract_occupancy
 Hf  Hf1  1  0.59424  0.61247  0.75000  1
 Hf  Hf2  1  0.38753  0.98178  0.75000  1
 Hf  Hf3  1  0.01822  0.40576  0.75000  1
 Hf  Hf4  1  0.61247  0.59424  0.25000  1
 Hf  Hf5  1  0.40576  0.01822  0.25000  1
 Hf  Hf6  1  0.98178  0.38753  0.25000  1
 Rh  Rh1  1  0.00000  0.00000  0.75000  1
 Rh  Rh2  1  0.33333  0.66667  0.03671  1
 Rh  Rh3  1  0.66667  0.33333  0.53671  1
 Rh  Rh4  1  0.33333  0.66667  0.46329  1
 Rh  Rh5  1  0.66667  0.33333  0.96329  1
 Rh  Rh6  1  0.00000  0.00000  0.25000  1
 Sn  Sn1  1  0.72855  0.00000  0.50000  1
 Sn  Sn2  1  0.27145  0.27145  0.00000  1
 Sn  Sn3  1  0.00000  0.72855  0.00000  1
 Sn  Sn4  1  0.72855  0.00000  0.00000  1
 Sn  Sn5  1  0.27145  0.27145  0.50000  1
 Sn  Sn6  1  0.00000  0.72855  0.50000  1
