CIF file written using JARVIS-Tools package.
data_Rb3TlO3
_symmetry_space_group_name_H-M  'P2_1/c'
_cell_length_a       7.85308
_cell_length_b       7.13224
_cell_length_c       11.5636
_cell_angle_alpha    90
_cell_angle_beta     93.3732
_cell_angle_gamma    90

_symmetry_Int_Tables_number  14
_chemical_formula_structural  Rb3TlO3
_chemical_formula_sum  Rb2Tl4O2
_cell_volume  646.5556476476038
_cell_formula_units_Z  4
loop_
  _symmetry_equiv_pos_site_id
 _symmetry_equiv_pos_as_xyz
 1  'x, y, z'
loop_
 _atom_site_type_symbol
 _atom_site_label
 _atom_site_symmetry_multiplicity
 _atom_site_fract_x
 _atom_site_fract_y
 _atom_site_fract_z
 _atom_site_fract_occupancy
 O  O1  1  0.89019  0.53364  0.60705  1
 O  O2  1  0.30876  0.06917  0.19686  1
 O  O3  1  0.10981  0.03364  0.89295  1
 O  O4  1  0.69124  0.56917  0.30314  1
 O  O5  1  0.73794  0.12871  0.46215  1
 O  O6  1  0.26206  0.62871  0.03785  1
 O  O7  1  0.26206  0.87129  0.53785  1
 O  O8  1  0.73794  0.37129  0.96215  1
 O  O9  1  0.10981  0.46636  0.39295  1
 O  O10  1  0.89019  0.96636  0.10705  1
 O  O11  1  0.69124  0.93083  0.80314  1
 O  O12  1  0.30876  0.43083  0.69686  1
 Rb  Rb1  1  0.94403  0.87113  0.34417  1
 Rb  Rb2  1  0.05597  0.12887  0.65583  1
 Rb  Rb3  1  0.05597  0.37113  0.15583  1
 Rb  Rb4  1  0.63925  0.68718  0.07456  1
 Rb  Rb5  1  0.63925  0.81282  0.57456  1
 Rb  Rb6  1  0.36075  0.31282  0.92544  1
 Rb  Rb7  1  0.62960  0.20408  0.18928  1
 Rb  Rb8  1  0.37040  0.70408  0.31072  1
 Rb  Rb9  1  0.37040  0.79592  0.81072  1
 Rb  Rb10  1  0.62960  0.29592  0.68928  1
 Rb  Rb11  1  0.36075  0.18718  0.42544  1
 Rb  Rb12  1  0.94403  0.62887  0.84417  1
 Tl  Tl1  1  0.16561  0.59603  0.57064  1
 Tl  Tl2  1  0.83439  0.40397  0.42936  1
 Tl  Tl3  1  0.16561  0.90397  0.07064  1
 Tl  Tl4  1  0.83439  0.09603  0.92936  1
