CIF file written using JARVIS-Tools package.
data_CaPb
_symmetry_space_group_name_H-M  'P4/mmm'
_cell_length_a       4.56321
_cell_length_b       5.06538
_cell_length_c       5.06538
_cell_angle_alpha    90
_cell_angle_beta     90
_cell_angle_gamma    90

_symmetry_Int_Tables_number  123
_chemical_formula_structural  CaPb
_chemical_formula_sum  Ca2Pb2
_cell_volume  117.08324157270351
_cell_formula_units_Z  2
loop_
  _symmetry_equiv_pos_site_id
 _symmetry_equiv_pos_as_xyz
 1  'x, y, z'
loop_
 _atom_site_type_symbol
 _atom_site_label
 _atom_site_symmetry_multiplicity
 _atom_site_fract_x
 _atom_site_fract_y
 _atom_site_fract_z
 _atom_site_fract_occupancy
 Ca  Ca1  1  0.00000  0.00000  0.00000  1
 Ca  Ca2  1  0.00000  0.50000  0.50000  1
 Pb  Pb1  1  0.50000  0.00000  0.50000  1
 Pb  Pb2  1  0.50000  0.50000  0.00000  1
