CIF file written using JARVIS-Tools package.
data_YZnAsO
_symmetry_space_group_name_H-M  'P4/nmm'
_cell_length_a       3.95848
_cell_length_b       3.95848
_cell_length_c       8.90174
_cell_angle_alpha    90
_cell_angle_beta     90
_cell_angle_gamma    90

_symmetry_Int_Tables_number  129
_chemical_formula_structural  YZnAsO
_chemical_formula_sum  Y2Zn2As2O2
_cell_volume  139.48678684188803
_cell_formula_units_Z  2
loop_
  _symmetry_equiv_pos_site_id
 _symmetry_equiv_pos_as_xyz
 1  'x, y, z'
loop_
 _atom_site_type_symbol
 _atom_site_label
 _atom_site_symmetry_multiplicity
 _atom_site_fract_x
 _atom_site_fract_y
 _atom_site_fract_z
 _atom_site_fract_occupancy
 As  As1  1  0.50000  0.00000  0.31529  1
 As  As2  1  0.00000  0.50000  0.68471  1
 O  O1  1  0.50000  0.50000  0.00000  1
 O  O2  1  0.00000  0.00000  0.00000  1
 Y  Y1  1  0.50000  0.00000  0.87793  1
 Y  Y2  1  0.00000  0.50000  0.12207  1
 Zn  Zn1  1  0.50000  0.50000  0.50000  1
 Zn  Zn2  1  0.00000  0.00000  0.50000  1
