CIF file written using JARVIS-Tools package.
data_NdP5
_symmetry_space_group_name_H-M  'P2_1/m'
_cell_length_a       5.02465
_cell_length_b       9.64011
_cell_length_c       5.49566
_cell_angle_alpha    90
_cell_angle_beta     102.68
_cell_angle_gamma    90

_symmetry_Int_Tables_number  11
_chemical_formula_structural  NdP5
_chemical_formula_sum  Nd2P0
_cell_volume  259.7072381633958
_cell_formula_units_Z  2
loop_
  _symmetry_equiv_pos_site_id
 _symmetry_equiv_pos_as_xyz
 1  'x, y, z'
loop_
 _atom_site_type_symbol
 _atom_site_label
 _atom_site_symmetry_multiplicity
 _atom_site_fract_x
 _atom_site_fract_y
 _atom_site_fract_z
 _atom_site_fract_occupancy
 Nd  Nd1  1  0.98511  0.25000  0.64831  1
 Nd  Nd2  1  0.01489  0.75000  0.35169  1
 P  P1  1  0.71404  0.25000  0.09715  1
 P  P2  1  0.28596  0.75000  0.90285  1
 P  P3  1  0.38267  0.40946  0.04442  1
 P  P4  1  0.61733  0.90946  0.95558  1
 P  P5  1  0.61733  0.59054  0.95558  1
 P  P6  1  0.38267  0.09054  0.04442  1
 P  P7  1  0.29056  0.46788  0.40092  1
 P  P8  1  0.70944  0.96788  0.59908  1
 P  P9  1  0.70944  0.53212  0.59908  1
 P  P10  1  0.29056  0.03212  0.40092  1
