CIF file written using JARVIS-Tools package.
data_BiO2
_symmetry_space_group_name_H-M  'C2/c'
_cell_length_a       5.30625
_cell_length_b       5.63313
_cell_length_c       6.77497
_cell_angle_alpha    107.786
_cell_angle_beta     113.055
_cell_angle_gamma    90

_symmetry_Int_Tables_number  15
_chemical_formula_structural  BiO2
_chemical_formula_sum  Bi4O8
_cell_volume  175.76826235997322
_cell_formula_units_Z  4
loop_
  _symmetry_equiv_pos_site_id
 _symmetry_equiv_pos_as_xyz
 1  'x, y, z'
loop_
 _atom_site_type_symbol
 _atom_site_label
 _atom_site_symmetry_multiplicity
 _atom_site_fract_x
 _atom_site_fract_y
 _atom_site_fract_z
 _atom_site_fract_occupancy
 Bi  Bi1  1  0.73846  0.25000  -0.00000  1
 Bi  Bi2  1  0.26154  0.75000  0.00000  1
 Bi  Bi3  1  0.00000  0.00000  0.50000  1
 Bi  Bi4  1  0.50000  0.50000  0.50000  1
 O  O1  1  0.32455  0.01502  0.81234  1
 O  O2  1  0.10737  0.64051  0.34322  1
 O  O3  1  0.89263  0.35949  0.65678  1
 O  O4  1  0.76415  0.85949  0.65678  1
 O  O5  1  0.23585  0.14051  0.34322  1
 O  O6  1  0.48780  0.51502  0.81234  1
 O  O7  1  0.51220  0.48498  0.18766  1
 O  O8  1  0.67545  0.98498  0.18766  1
