CIF file written using JARVIS-Tools package.
data_Sb
_symmetry_space_group_name_H-M  'I4/mcm'
_cell_length_a       4.10408
_cell_length_b       6.13239
_cell_length_c       6.13239
_cell_angle_alpha    83.5709
_cell_angle_beta     70.4504
_cell_angle_gamma    70.4503

_symmetry_Int_Tables_number  140
_chemical_formula_structural  Sb
_chemical_formula_sum  Sb4
_cell_volume  137.05730454746137
_cell_formula_units_Z  4
loop_
  _symmetry_equiv_pos_site_id
 _symmetry_equiv_pos_as_xyz
 1  'x, y, z'
loop_
 _atom_site_type_symbol
 _atom_site_label
 _atom_site_symmetry_multiplicity
 _atom_site_fract_x
 _atom_site_fract_y
 _atom_site_fract_z
 _atom_site_fract_occupancy
 Sb  Sb1  1  0.65216  0.19567  0.50000  1
 Sb  Sb2  1  0.15216  0.50000  0.19567  1
 Sb  Sb3  1  0.34784  0.80433  0.50000  1
 Sb  Sb4  1  0.84784  0.50000  0.80433  1
