CIF file written using JARVIS-Tools package.
data_Ba2TlSn2O7
_symmetry_space_group_name_H-M  'P4/mmm'
_cell_length_a       3.8664
_cell_length_b       3.8664
_cell_length_c       13.9213
_cell_angle_alpha    90
_cell_angle_beta     90
_cell_angle_gamma    90

_symmetry_Int_Tables_number  123
_chemical_formula_structural  Ba2TlSn2O7
_chemical_formula_sum  Ba2TlSn2O7
_cell_volume  208.11028245984693
_cell_formula_units_Z  1
loop_
  _symmetry_equiv_pos_site_id
 _symmetry_equiv_pos_as_xyz
 1  'x, y, z'
loop_
 _atom_site_type_symbol
 _atom_site_label
 _atom_site_symmetry_multiplicity
 _atom_site_fract_x
 _atom_site_fract_y
 _atom_site_fract_z
 _atom_site_fract_occupancy
 Ba  Ba1  1  0.00000  0.00000  0.30179  1
 Ba  Ba2  1  0.00000  0.00000  0.69821  1
 O  O1  1  0.00000  0.00000  0.50001  1
 O  O2  1  0.00000  0.50000  0.15590  1
 O  O3  1  0.50000  0.00000  0.15590  1
 O  O4  1  0.00000  0.50000  0.84410  1
 O  O5  1  0.50000  0.00000  0.84410  1
 O  O6  1  0.50000  0.50000  0.35280  1
 O  O7  1  0.50000  0.50000  0.64722  1
 Sn  Sn1  1  0.50000  0.50000  0.10239  1
 Sn  Sn2  1  0.50000  0.50000  0.89761  1
 Tl  Tl1  1  0.50000  0.50000  0.50001  1
