CIF file written using JARVIS-Tools package.
data_Mg2Co3O8
_symmetry_space_group_name_H-M  'C2/m'
_cell_length_a       4.78557
_cell_length_b       5.66008
_cell_length_c       5.77084
_cell_angle_alpha    119.367
_cell_angle_beta     106.987
_cell_angle_gamma    89.9999

_symmetry_Int_Tables_number  12
_chemical_formula_structural  Mg2Co3O8
_chemical_formula_sum  Mg2Co3O8
_cell_volume  128.3430578329812
_cell_formula_units_Z  1
loop_
  _symmetry_equiv_pos_site_id
 _symmetry_equiv_pos_as_xyz
 1  'x, y, z'
loop_
 _atom_site_type_symbol
 _atom_site_label
 _atom_site_symmetry_multiplicity
 _atom_site_fract_x
 _atom_site_fract_y
 _atom_site_fract_z
 _atom_site_fract_occupancy
 Co  Co1  1  0.50000  1.00000  0.00000  1
 Co  Co2  1  1.00000  0.74087  0.00000  1
 Co  Co3  1  1.00000  0.25913  -0.00000  1
 Mg  Mg1  1  0.65418  0.72503  0.45006  1
 Mg  Mg2  1  0.34582  0.27497  0.54994  1
 O  O1  1  0.07107  0.39506  0.79012  1
 O  O2  1  0.92893  0.60494  0.20988  1
 O  O3  1  0.08788  0.89580  0.79160  1
 O  O4  1  0.91212  0.10420  0.20840  1
 O  O5  1  0.39987  0.33889  0.22454  1
 O  O6  1  0.39987  0.88565  0.22454  1
 O  O7  1  0.60013  0.11435  0.77546  1
 O  O8  1  0.60013  0.66111  0.77546  1
