CIF file written using JARVIS-Tools package.
data_DyCu2O4
_symmetry_space_group_name_H-M  'I4_1/a'
_cell_length_a       5.67118
_cell_length_b       5.67041
_cell_length_c       6.2721
_cell_angle_alpha    116.868
_cell_angle_beta     116.871
_cell_angle_gamma    90.0131

_symmetry_Int_Tables_number  88
_chemical_formula_structural  DyCu2O4
_chemical_formula_sum  Dy2Cu4O8
_cell_volume  155.10645433497206
_cell_formula_units_Z  2
loop_
  _symmetry_equiv_pos_site_id
 _symmetry_equiv_pos_as_xyz
 1  'x, y, z'
loop_
 _atom_site_type_symbol
 _atom_site_label
 _atom_site_symmetry_multiplicity
 _atom_site_fract_x
 _atom_site_fract_y
 _atom_site_fract_z
 _atom_site_fract_occupancy
 Cu  Cu1  1  0.50000  0.00000  -0.00000  1
 Cu  Cu2  1  0.50000  0.50000  -0.00000  1
 Cu  Cu3  1  0.00000  0.50000  0.50000  1
 Cu  Cu4  1  0.50000  0.50000  0.50000  1
 Dy  Dy1  1  0.87500  0.12500  0.74999  1
 Dy  Dy2  1  0.12500  0.87500  0.25001  1
 O  O1  1  0.72006  0.53025  0.85478  1
 O  O2  1  0.13472  0.82453  0.85478  1
 O  O3  1  0.27994  0.46975  0.14522  1
 O  O4  1  0.86528  0.17547  0.14522  1
 O  O5  1  0.53030  0.13475  0.35478  1
 O  O6  1  0.82448  0.72003  0.35478  1
 O  O7  1  0.17552  0.27997  0.64523  1
 O  O8  1  0.46970  0.86525  0.64523  1
