CIF file written using JARVIS-Tools package.
data_CaGe2Ir2
_symmetry_space_group_name_H-M  'I4/mmm'
_cell_length_a       4.19614
_cell_length_b       4.19614
_cell_length_c       5.99704
_cell_angle_alpha    110.478
_cell_angle_beta     110.478
_cell_angle_gamma    90

_symmetry_Int_Tables_number  139
_chemical_formula_structural  CaGe2Ir2
_chemical_formula_sum  CaGe2Ir2
_cell_volume  91.76343845356203
_cell_formula_units_Z  1
loop_
  _symmetry_equiv_pos_site_id
 _symmetry_equiv_pos_as_xyz
 1  'x, y, z'
loop_
 _atom_site_type_symbol
 _atom_site_label
 _atom_site_symmetry_multiplicity
 _atom_site_fract_x
 _atom_site_fract_y
 _atom_site_fract_z
 _atom_site_fract_occupancy
 Ca  Ca1  1  0.00000  0.00000  0.00000  1
 Ge  Ge1  1  0.37582  0.37582  0.75164  1
 Ge  Ge2  1  0.62418  0.62418  0.24836  1
 Ir  Ir1  1  0.75000  0.25000  0.50000  1
 Ir  Ir2  1  0.25000  0.75000  0.50000  1
