CIF file written using JARVIS-Tools package.
data_PtI2
_symmetry_space_group_name_H-M  'P2_1/c'
_cell_length_a       6.71126
_cell_length_b       8.70188
_cell_length_c       6.94366
_cell_angle_alpha    90
_cell_angle_beta     102.993
_cell_angle_gamma    90

_symmetry_Int_Tables_number  14
_chemical_formula_structural  PtI2
_chemical_formula_sum  Pt4I8
_cell_volume  395.1303622508089
_cell_formula_units_Z  4
loop_
  _symmetry_equiv_pos_site_id
 _symmetry_equiv_pos_as_xyz
 1  'x, y, z'
loop_
 _atom_site_type_symbol
 _atom_site_label
 _atom_site_symmetry_multiplicity
 _atom_site_fract_x
 _atom_site_fract_y
 _atom_site_fract_z
 _atom_site_fract_occupancy
 I  I1  1  0.46386  0.83321  0.73340  1
 I  I2  1  0.53614  0.33321  0.76660  1
 I  I3  1  0.53614  0.16679  0.26660  1
 I  I4  1  0.46386  0.66679  0.23340  1
 I  I5  1  0.98419  0.91448  0.22938  1
 I  I6  1  0.01581  0.41448  0.27062  1
 I  I7  1  0.01581  0.08552  0.77062  1
 I  I8  1  0.98419  0.58552  0.72938  1
 Pt  Pt1  1  0.23902  0.62696  0.49683  1
 Pt  Pt2  1  0.76098  0.12696  0.00317  1
 Pt  Pt3  1  0.76098  0.37304  0.50317  1
 Pt  Pt4  1  0.23902  0.87304  -0.00317  1
