CIF file written using JARVIS-Tools package.
data_MgCrO2
_symmetry_space_group_name_H-M  'P2_1/m'
_cell_length_a       2.92077
_cell_length_b       7.55292
_cell_length_c       7.82201
_cell_angle_alpha    83.3022
_cell_angle_beta     89.9993
_cell_angle_gamma    90.0004

_symmetry_Int_Tables_number  11
_chemical_formula_structural  MgCrO2
_chemical_formula_sum  Mg4Cr4O8
_cell_volume  171.37840463735878
_cell_formula_units_Z  4
loop_
  _symmetry_equiv_pos_site_id
 _symmetry_equiv_pos_as_xyz
 1  'x, y, z'
loop_
 _atom_site_type_symbol
 _atom_site_label
 _atom_site_symmetry_multiplicity
 _atom_site_fract_x
 _atom_site_fract_y
 _atom_site_fract_z
 _atom_site_fract_occupancy
 Cr  Cr1  1  0.25001  0.80891  0.56204  1
 Cr  Cr2  1  0.24999  0.60116  0.28122  1
 Cr  Cr3  1  0.75001  0.39884  0.71878  1
 Cr  Cr4  1  0.74999  0.19109  0.43796  1
 Mg  Mg1  1  0.74999  0.96215  0.16955  1
 Mg  Mg2  1  0.25001  0.03785  0.83045  1
 Mg  Mg3  1  0.25000  0.31651  0.06421  1
 Mg  Mg4  1  0.75000  0.68349  0.93579  1
 O  O1  1  0.25000  0.24415  0.61505  1
 O  O2  1  0.25002  0.51730  0.84007  1
 O  O3  1  0.74998  0.48270  0.15993  1
 O  O4  1  0.75000  0.75585  0.38495  1
 O  O5  1  0.75001  0.87880  0.71862  1
 O  O6  1  0.25000  0.83135  0.04390  1
 O  O7  1  0.24999  0.12120  0.28138  1
 O  O8  1  0.75000  0.16865  0.95610  1
