CIF file written using JARVIS-Tools package.
data_ErTl
_symmetry_space_group_name_H-M  'P4/mmm'
_cell_length_a       4.23391
_cell_length_b       4.96488
_cell_length_c       4.96488
_cell_angle_alpha    90
_cell_angle_beta     90
_cell_angle_gamma    90

_symmetry_Int_Tables_number  123
_chemical_formula_structural  ErTl
_chemical_formula_sum  Er2Tl2
_cell_volume  104.3659390555984
_cell_formula_units_Z  2
loop_
  _symmetry_equiv_pos_site_id
 _symmetry_equiv_pos_as_xyz
 1  'x, y, z'
loop_
 _atom_site_type_symbol
 _atom_site_label
 _atom_site_symmetry_multiplicity
 _atom_site_fract_x
 _atom_site_fract_y
 _atom_site_fract_z
 _atom_site_fract_occupancy
 Er  Er1  1  0.00000  0.00000  0.00000  1
 Er  Er2  1  0.00000  0.50000  0.50000  1
 Tl  Tl1  1  0.50000  0.00000  0.50000  1
 Tl  Tl2  1  0.50000  0.50000  0.00000  1
