CIF file written using JARVIS-Tools package.
data_NaC
_symmetry_space_group_name_H-M  'Immm'
_cell_length_a       4.12615
_cell_length_b       4.6449
_cell_length_c       4.6449
_cell_angle_alpha    71.1387
_cell_angle_beta     63.6304
_cell_angle_gamma    63.6305

_symmetry_Int_Tables_number  71
_chemical_formula_structural  NaC
_chemical_formula_sum  Na2C2
_cell_volume  70.57435983200354
_cell_formula_units_Z  2
loop_
  _symmetry_equiv_pos_site_id
 _symmetry_equiv_pos_as_xyz
 1  'x, y, z'
loop_
 _atom_site_type_symbol
 _atom_site_label
 _atom_site_symmetry_multiplicity
 _atom_site_fract_x
 _atom_site_fract_y
 _atom_site_fract_z
 _atom_site_fract_occupancy
 C  C1  1  0.00000  0.61636  0.38364  1
 C  C2  1  -0.00000  0.38364  0.61636  1
 Na  Na1  1  0.75537  0.24463  0.24463  1
 Na  Na2  1  0.24463  0.75537  0.75537  1
