CIF file written using JARVIS-Tools package.
data_Te3Mo2S
_symmetry_space_group_name_H-M  'P3m1'
_cell_length_a       3.47292
_cell_length_b       13.7743
_cell_length_c       3.4729
_cell_angle_alpha    90.0014
_cell_angle_beta     120
_cell_angle_gamma    90.0001

_symmetry_Int_Tables_number  156
_chemical_formula_structural  Te3Mo2S
_chemical_formula_sum  Te3Mo2S
_cell_volume  143.87595861178212
_cell_formula_units_Z  1
loop_
  _symmetry_equiv_pos_site_id
 _symmetry_equiv_pos_as_xyz
 1  'x, y, z'
loop_
 _atom_site_type_symbol
 _atom_site_label
 _atom_site_symmetry_multiplicity
 _atom_site_fract_x
 _atom_site_fract_y
 _atom_site_fract_z
 _atom_site_fract_occupancy
 Mo  Mo1  1  0.66669  0.75762  0.33343  1
 Mo  Mo2  1  0.33331  0.23171  0.66657  1
 S  S1  1  0.66665  0.12701  0.33321  1
 Te  Te1  1  0.66664  0.36788  0.33326  1
 Te  Te2  1  0.33338  0.89205  0.66678  1
 Te  Te3  1  0.33333  0.62373  0.66674  1
