CIF file written using JARVIS-Tools package.
data_NiAsSe
_symmetry_space_group_name_H-M  'P2_13'
_cell_length_a       5.89889
_cell_length_b       5.89889
_cell_length_c       5.89889
_cell_angle_alpha    90
_cell_angle_beta     90
_cell_angle_gamma    90

_symmetry_Int_Tables_number  198
_chemical_formula_structural  NiAsSe
_chemical_formula_sum  Ni4As4Se4
_cell_volume  205.26313996949565
_cell_formula_units_Z  4
loop_
  _symmetry_equiv_pos_site_id
 _symmetry_equiv_pos_as_xyz
 1  'x, y, z'
loop_
 _atom_site_type_symbol
 _atom_site_label
 _atom_site_symmetry_multiplicity
 _atom_site_fract_x
 _atom_site_fract_y
 _atom_site_fract_z
 _atom_site_fract_occupancy
 As  As1  1  0.62278  0.62278  0.62278  1
 As  As2  1  0.87722  0.37722  0.12278  1
 As  As3  1  0.12278  0.87722  0.37722  1
 As  As4  1  0.37722  0.12278  0.87722  1
 Ni  Ni1  1  0.00391  0.00391  0.00391  1
 Ni  Ni2  1  0.49609  0.99609  0.50391  1
 Ni  Ni3  1  0.50391  0.49609  0.99609  1
 Ni  Ni4  1  0.99609  0.50391  0.49609  1
 Se  Se1  1  0.37852  0.37852  0.37852  1
 Se  Se2  1  0.12148  0.62148  0.87852  1
 Se  Se3  1  0.87852  0.12148  0.62148  1
 Se  Se4  1  0.62148  0.87852  0.12148  1
