CIF file written using JARVIS-Tools package.
data_Rb2MgH4
_symmetry_space_group_name_H-M  'Cmcm'
_cell_length_a       6.581
_cell_length_b       6.581
_cell_length_c       8.76881
_cell_angle_alpha    90
_cell_angle_beta     90
_cell_angle_gamma    104.01

_symmetry_Int_Tables_number  63
_chemical_formula_structural  Rb2MgH4
_chemical_formula_sum  Rb4Mg2H8
_cell_volume  368.4768955304021
_cell_formula_units_Z  2
loop_
  _symmetry_equiv_pos_site_id
 _symmetry_equiv_pos_as_xyz
 1  'x, y, z'
loop_
 _atom_site_type_symbol
 _atom_site_label
 _atom_site_symmetry_multiplicity
 _atom_site_fract_x
 _atom_site_fract_y
 _atom_site_fract_z
 _atom_site_fract_occupancy
 H  H1  1  0.78600  0.04789  0.25000  1
 H  H2  1  0.54789  0.28600  0.75000  1
 H  H3  1  0.16263  0.33737  0.92773  1
 H  H4  1  0.16263  0.33737  0.57227  1
 H  H5  1  0.83737  0.66263  0.07227  1
 H  H6  1  0.83737  0.66263  0.42773  1
 H  H7  1  0.45211  0.71400  0.25000  1
 H  H8  1  0.21400  0.95211  0.75000  1
 Mg  Mg1  1  0.74374  0.75626  0.25000  1
 Mg  Mg2  1  0.25626  0.24374  0.75000  1
 Rb  Rb1  1  0.50000  1.00000  0.50000  1
 Rb  Rb2  1  0.50000  -0.00000  1.00000  1
 Rb  Rb3  1  0.09036  0.40964  0.25000  1
 Rb  Rb4  1  0.90964  0.59036  0.75000  1
