CIF file written using JARVIS-Tools package.
data_Ho2Be2SiO7
_symmetry_space_group_name_H-M  'P-42_1m'
_cell_length_a       7.30036
_cell_length_b       7.30036
_cell_length_c       4.76484
_cell_angle_alpha    90
_cell_angle_beta     90
_cell_angle_gamma    90

_symmetry_Int_Tables_number  113
_chemical_formula_structural  Ho2Be2SiO7
_chemical_formula_sum  Ho4Be4Si2O4
_cell_volume  253.94363558291047
_cell_formula_units_Z  2
loop_
  _symmetry_equiv_pos_site_id
 _symmetry_equiv_pos_as_xyz
 1  'x, y, z'
loop_
 _atom_site_type_symbol
 _atom_site_label
 _atom_site_symmetry_multiplicity
 _atom_site_fract_x
 _atom_site_fract_y
 _atom_site_fract_z
 _atom_site_fract_occupancy
 Be  Be1  1  0.13752  0.63752  0.95781  1
 Be  Be2  1  0.63752  0.86248  0.04219  1
 Be  Be3  1  0.86248  0.36248  0.95781  1
 Be  Be4  1  0.36248  0.13752  0.04219  1
 Ho  Ho1  1  0.84149  0.65851  0.49247  1
 Ho  Ho2  1  0.34149  0.84149  0.50753  1
 Ho  Ho3  1  0.65851  0.15851  0.50753  1
 Ho  Ho4  1  0.15851  0.34149  0.49247  1
 O  O1  1  0.85830  0.35830  0.29185  1
 O  O2  1  0.33736  0.58196  0.79751  1
 O  O3  1  0.14170  0.64170  0.29185  1
 O  O4  1  0.64170  0.85830  0.70815  1
 O  O5  1  0.50000  0.00000  0.18311  1
 O  O6  1  0.35830  0.14170  0.70815  1
 O  O7  1  0.08196  0.83736  0.79751  1
 O  O8  1  0.58196  0.66264  0.20249  1
 O  O9  1  0.83736  0.91804  0.20249  1
 O  O10  1  0.91804  0.16264  0.79751  1
 O  O11  1  0.00000  0.50000  0.81689  1
 O  O12  1  0.41804  0.33736  0.20249  1
 O  O13  1  0.16264  0.08196  0.20249  1
 O  O14  1  0.66264  0.41804  0.79751  1
 Si  Si1  1  0.00000  0.00000  0.00000  1
 Si  Si2  1  0.50000  0.50000  0.00000  1
