CIF file written using JARVIS-Tools package.
data_Pu
_symmetry_space_group_name_H-M  'Fddd'
_cell_length_a       3.55726
_cell_length_b       3.3253
_cell_length_c       3.97125
_cell_angle_alpha    76.1396
_cell_angle_beta     63.3927
_cell_angle_gamma    57.6643

_symmetry_Int_Tables_number  70
_chemical_formula_structural  Pu
_chemical_formula_sum  Pu2
_cell_volume  35.48763621183695
_cell_formula_units_Z  2
loop_
  _symmetry_equiv_pos_site_id
 _symmetry_equiv_pos_as_xyz
 1  'x, y, z'
loop_
 _atom_site_type_symbol
 _atom_site_label
 _atom_site_symmetry_multiplicity
 _atom_site_fract_x
 _atom_site_fract_y
 _atom_site_fract_z
 _atom_site_fract_occupancy
 Pu  Pu1  1  0.12500  0.75000  0.75000  1
 Pu  Pu2  1  0.87500  0.25000  0.25000  1
