CIF file written using JARVIS-Tools package.
data_ZnGeN2
_symmetry_space_group_name_H-M  'Pna2_1'
_cell_length_a       5.2516
_cell_length_b       5.50831
_cell_length_c       6.48821
_cell_angle_alpha    90
_cell_angle_beta     90
_cell_angle_gamma    90

_symmetry_Int_Tables_number  33
_chemical_formula_structural  ZnGeN2
_chemical_formula_sum  Zn4Ge4N8
_cell_volume  187.6874425027256
_cell_formula_units_Z  4
loop_
  _symmetry_equiv_pos_site_id
 _symmetry_equiv_pos_as_xyz
 1  'x, y, z'
loop_
 _atom_site_type_symbol
 _atom_site_label
 _atom_site_symmetry_multiplicity
 _atom_site_fract_x
 _atom_site_fract_y
 _atom_site_fract_z
 _atom_site_fract_occupancy
 Ge  Ge1  1  0.00028  0.07680  0.12541  1
 Ge  Ge2  1  0.50028  0.92320  0.87459  1
 Ge  Ge3  1  0.50028  0.42320  0.62541  1
 Ge  Ge4  1  0.00028  0.57680  0.37459  1
 N  N1  1  0.39140  0.59740  0.86047  1
 N  N2  1  0.89140  0.40260  0.13953  1
 N  N3  1  0.89140  0.90260  0.36047  1
 N  N4  1  0.39140  0.09740  0.63953  1
 N  N5  1  0.35942  0.56682  0.38926  1
 N  N6  1  0.35942  0.06682  0.11074  1
 N  N7  1  0.85942  0.93318  0.88926  1
 N  N8  1  0.85942  0.43318  0.61074  1
 Zn  Zn1  1  0.99990  0.58390  0.87530  1
 Zn  Zn2  1  0.49990  0.91610  0.37530  1
 Zn  Zn3  1  0.49990  0.41610  0.12470  1
 Zn  Zn4  1  0.99990  0.08390  0.62470  1
