CIF file written using JARVIS-Tools package.
data_USi
_symmetry_space_group_name_H-M  'Pnma'
_cell_length_a       3.71321
_cell_length_b       5.12627
_cell_length_c       8.52112
_cell_angle_alpha    90
_cell_angle_beta     90
_cell_angle_gamma    90

_symmetry_Int_Tables_number  62
_chemical_formula_structural  USi
_chemical_formula_sum  U4Si4
_cell_volume  162.1988960809011
_cell_formula_units_Z  4
loop_
  _symmetry_equiv_pos_site_id
 _symmetry_equiv_pos_as_xyz
 1  'x, y, z'
loop_
 _atom_site_type_symbol
 _atom_site_label
 _atom_site_symmetry_multiplicity
 _atom_site_fract_x
 _atom_site_fract_y
 _atom_site_fract_z
 _atom_site_fract_occupancy
 Si  Si1  1  0.25000  0.84455  0.52302  1
 Si  Si2  1  0.75000  0.15545  0.47698  1
 Si  Si3  1  0.75000  0.34455  0.97698  1
 Si  Si4  1  0.25000  0.65545  0.02302  1
 U  U1  1  0.25000  0.36712  0.70990  1
 U  U2  1  0.75000  0.63288  0.29010  1
 U  U3  1  0.75000  0.86712  0.79010  1
 U  U4  1  0.25000  0.13288  0.20990  1
