CIF file written using JARVIS-Tools package.
data_MgAuO2
_symmetry_space_group_name_H-M  'Cmmm'
_cell_length_a       3.06002
_cell_length_b       5.67696
_cell_length_c       6.31458
_cell_angle_alpha    116.712
_cell_angle_beta     90
_cell_angle_gamma    90

_symmetry_Int_Tables_number  65
_chemical_formula_structural  MgAuO2
_chemical_formula_sum  Mg2Au2O4
_cell_volume  97.98699254146672
_cell_formula_units_Z  2
loop_
  _symmetry_equiv_pos_site_id
 _symmetry_equiv_pos_as_xyz
 1  'x, y, z'
loop_
 _atom_site_type_symbol
 _atom_site_label
 _atom_site_symmetry_multiplicity
 _atom_site_fract_x
 _atom_site_fract_y
 _atom_site_fract_z
 _atom_site_fract_occupancy
 Au  Au1  1  0.00000  0.00000  0.00000  1
 Au  Au2  1  0.00000  0.50000  -0.00000  1
 Mg  Mg1  1  0.50000  0.50000  0.50000  1
 Mg  Mg2  1  0.50000  0.00000  0.50000  1
 O  O1  1  0.50000  0.88147  0.76293  1
 O  O2  1  0.00000  0.68680  0.37361  1
 O  O3  1  0.50000  0.11853  0.23707  1
 O  O4  1  0.00000  0.31320  0.62639  1
