CIF file written using JARVIS-Tools package.
data_Ta3B4
_symmetry_space_group_name_H-M  'Immm'
_cell_length_a       3.14323
_cell_length_b       3.31717
_cell_length_c       7.39884
_cell_angle_alpha    102.954
_cell_angle_beta     102.264
_cell_angle_gamma    90

_symmetry_Int_Tables_number  71
_chemical_formula_structural  Ta3B4
_chemical_formula_sum  Ta3B4
_cell_volume  73.37408423837488
_cell_formula_units_Z  1
loop_
  _symmetry_equiv_pos_site_id
 _symmetry_equiv_pos_as_xyz
 1  'x, y, z'
loop_
 _atom_site_type_symbol
 _atom_site_label
 _atom_site_symmetry_multiplicity
 _atom_site_fract_x
 _atom_site_fract_y
 _atom_site_fract_z
 _atom_site_fract_occupancy
 B  B1  1  0.93592  0.43592  0.87183  1
 B  B2  1  0.06408  0.56408  0.12817  1
 B  B3  1  0.36723  0.36723  0.73446  1
 B  B4  1  0.63277  0.63277  0.26554  1
 Ta  Ta1  1  0.18544  0.18544  0.37088  1
 Ta  Ta2  1  0.81456  0.81456  0.62912  1
 Ta  Ta3  1  0.50000  -0.00000  0.00000  1
