CIF file written using JARVIS-Tools package.
data_KBH4
_symmetry_space_group_name_H-M  'P4_2/nmc'
_cell_length_a       4.66051
_cell_length_b       4.66051
_cell_length_c       6.53321
_cell_angle_alpha    90
_cell_angle_beta     90
_cell_angle_gamma    90

_symmetry_Int_Tables_number  137
_chemical_formula_structural  KBH4
_chemical_formula_sum  K2B2H8
_cell_volume  141.9034240496684
_cell_formula_units_Z  2
loop_
  _symmetry_equiv_pos_site_id
 _symmetry_equiv_pos_as_xyz
 1  'x, y, z'
loop_
 _atom_site_type_symbol
 _atom_site_label
 _atom_site_symmetry_multiplicity
 _atom_site_fract_x
 _atom_site_fract_y
 _atom_site_fract_z
 _atom_site_fract_occupancy
 B  B1  1  0.50000  0.50000  0.00000  1
 B  B2  1  0.00000  0.00000  0.50000  1
 H  H1  1  0.00000  0.21590  0.60874  1
 H  H2  1  0.78410  0.00000  0.39126  1
 H  H3  1  0.00000  0.78410  0.60874  1
 H  H4  1  0.50000  0.71590  0.89126  1
 H  H5  1  0.71590  0.50000  0.10874  1
 H  H6  1  0.28410  0.50000  0.10874  1
 H  H7  1  0.50000  0.28410  0.89126  1
 H  H8  1  0.21590  0.00000  0.39126  1
 K  K1  1  0.00000  0.00000  0.00000  1
 K  K2  1  0.50000  0.50000  0.50000  1
