CIF file written using JARVIS-Tools package.
data_PdSe2O5
_symmetry_space_group_name_H-M  'C2/c'
_cell_length_a       5.67297
_cell_length_b       6.71971
_cell_length_c       7.14086
_cell_angle_alpha    105.792
_cell_angle_beta     90
_cell_angle_gamma    114.968

_symmetry_Int_Tables_number  15
_chemical_formula_structural  PdSe2O5
_chemical_formula_sum  Pd2Se4O0
_cell_volume  235.39198903440146
_cell_formula_units_Z  2
loop_
  _symmetry_equiv_pos_site_id
 _symmetry_equiv_pos_as_xyz
 1  'x, y, z'
loop_
 _atom_site_type_symbol
 _atom_site_label
 _atom_site_symmetry_multiplicity
 _atom_site_fract_x
 _atom_site_fract_y
 _atom_site_fract_z
 _atom_site_fract_occupancy
 O  O1  1  0.64083  0.73834  0.37524  1
 O  O2  1  0.90249  0.26166  0.12476  1
 O  O3  1  0.35917  0.26166  0.62476  1
 O  O4  1  0.09751  0.73834  0.87524  1
 O  O5  1  0.44966  -0.00000  0.25000  1
 O  O6  1  0.55034  0.00000  0.75000  1
 O  O7  1  0.10033  0.74014  0.49169  1
 O  O8  1  0.36019  0.25986  0.00831  1
 O  O9  1  0.89967  0.25986  0.50831  1
 O  O10  1  0.63981  0.74014  -0.00831  1
 Pd  Pd1  1  0.00000  -0.00000  0.50000  1
 Pd  Pd2  1  0.00000  0.00000  0.00000  1
 Se  Se1  1  0.26914  0.71682  0.67964  1
 Se  Se2  1  0.55233  0.28318  0.82036  1
 Se  Se3  1  0.44767  0.71682  0.17964  1
 Se  Se4  1  0.73086  0.28318  0.32036  1
