CIF file written using JARVIS-Tools package.
data_SiF4
_symmetry_space_group_name_H-M  'I-43m'
_cell_length_a       4.58741
_cell_length_b       4.58741
_cell_length_c       4.58741
_cell_angle_alpha    109.471
_cell_angle_beta     109.471
_cell_angle_gamma    109.471

_symmetry_Int_Tables_number  217
_chemical_formula_structural  SiF4
_chemical_formula_sum  SiF4
_cell_volume  74.31570528801504
_cell_formula_units_Z  1
loop_
  _symmetry_equiv_pos_site_id
 _symmetry_equiv_pos_as_xyz
 1  'x, y, z'
loop_
 _atom_site_type_symbol
 _atom_site_label
 _atom_site_symmetry_multiplicity
 _atom_site_fract_x
 _atom_site_fract_y
 _atom_site_fract_z
 _atom_site_fract_occupancy
 F  F1  1  0.00000  0.00000  0.65456  1
 F  F2  1  0.34544  0.34544  0.34544  1
 F  F3  1  0.65456  0.00000  0.00000  1
 F  F4  1  -0.00000  0.65456  0.00000  1
 Si  Si1  1  0.00000  0.00000  0.00000  1
