CIF file written using JARVIS-Tools package.
data_K3AuSe2
_symmetry_space_group_name_H-M  'R-3c'
_cell_length_a       7.93622
_cell_length_b       7.93622
_cell_length_c       7.93622
_cell_angle_alpha    67.9805
_cell_angle_beta     67.9805
_cell_angle_gamma    67.9805

_symmetry_Int_Tables_number  167
_chemical_formula_structural  K3AuSe2
_chemical_formula_sum  K6Au2Se4
_cell_volume  413.30847622664663
_cell_formula_units_Z  2
loop_
  _symmetry_equiv_pos_site_id
 _symmetry_equiv_pos_as_xyz
 1  'x, y, z'
loop_
 _atom_site_type_symbol
 _atom_site_label
 _atom_site_symmetry_multiplicity
 _atom_site_fract_x
 _atom_site_fract_y
 _atom_site_fract_z
 _atom_site_fract_occupancy
 Au  Au1  1  0.50000  0.50000  0.50000  1
 Au  Au2  1  0.00000  0.00000  0.00000  1
 K  K1  1  0.95866  0.54134  0.25000  1
 K  K2  1  0.25000  0.95866  0.54134  1
 K  K3  1  0.54134  0.25000  0.95866  1
 K  K4  1  0.04134  0.45866  0.75000  1
 K  K5  1  0.75000  0.04134  0.45866  1
 K  K6  1  0.45866  0.75000  0.04134  1
 Se  Se1  1  0.63515  0.63515  0.63515  1
 Se  Se2  1  0.86485  0.86485  0.86485  1
 Se  Se3  1  0.13515  0.13515  0.13515  1
 Se  Se4  1  0.36485  0.36485  0.36485  1
