CIF file written using JARVIS-Tools package.
data_BaAg
_symmetry_space_group_name_H-M  'Pnma'
_cell_length_a       5.00254
_cell_length_b       6.5995
_cell_length_c       8.62313
_cell_angle_alpha    90
_cell_angle_beta     90
_cell_angle_gamma    90

_symmetry_Int_Tables_number  62
_chemical_formula_structural  BaAg
_chemical_formula_sum  Ba4Ag4
_cell_volume  284.68660984026184
_cell_formula_units_Z  4
loop_
  _symmetry_equiv_pos_site_id
 _symmetry_equiv_pos_as_xyz
 1  'x, y, z'
loop_
 _atom_site_type_symbol
 _atom_site_label
 _atom_site_symmetry_multiplicity
 _atom_site_fract_x
 _atom_site_fract_y
 _atom_site_fract_z
 _atom_site_fract_occupancy
 Ag  Ag1  1  0.25000  0.62328  0.03582  1
 Ag  Ag2  1  0.75000  0.37672  0.96418  1
 Ag  Ag3  1  0.75000  0.12328  0.46418  1
 Ag  Ag4  1  0.25000  0.87672  0.53582  1
 Ba  Ba1  1  0.25000  0.13271  0.18109  1
 Ba  Ba2  1  0.75000  0.86729  0.81891  1
 Ba  Ba3  1  0.75000  0.63271  0.31891  1
 Ba  Ba4  1  0.25000  0.36729  0.68109  1
