CIF file written using JARVIS-Tools package.
data_SrN2
_symmetry_space_group_name_H-M  'I4/mmm'
_cell_length_a       3.81547
_cell_length_b       3.81547
_cell_length_c       4.14836
_cell_angle_alpha    117.379
_cell_angle_beta     117.379
_cell_angle_gamma    90

_symmetry_Int_Tables_number  139
_chemical_formula_structural  SrN2
_chemical_formula_sum  SrN2
_cell_volume  45.87446252319899
_cell_formula_units_Z  1
loop_
  _symmetry_equiv_pos_site_id
 _symmetry_equiv_pos_as_xyz
 1  'x, y, z'
loop_
 _atom_site_type_symbol
 _atom_site_label
 _atom_site_symmetry_multiplicity
 _atom_site_fract_x
 _atom_site_fract_y
 _atom_site_fract_z
 _atom_site_fract_occupancy
 N  N1  1  0.59946  0.59946  0.19892  1
 N  N2  1  0.40054  0.40054  0.80108  1
 Sr  Sr1  1  0.00000  0.00000  0.00000  1
