CIF file written using JARVIS-Tools package.
data_KGeNO
_symmetry_space_group_name_H-M  'Pca2_1'
_cell_length_a       5.28089
_cell_length_b       5.77767
_cell_length_c       8.13056
_cell_angle_alpha    90
_cell_angle_beta     90
_cell_angle_gamma    90

_symmetry_Int_Tables_number  29
_chemical_formula_structural  KGeNO
_chemical_formula_sum  K4Ge4N4O4
_cell_volume  248.07365430008664
_cell_formula_units_Z  4
loop_
  _symmetry_equiv_pos_site_id
 _symmetry_equiv_pos_as_xyz
 1  'x, y, z'
loop_
 _atom_site_type_symbol
 _atom_site_label
 _atom_site_symmetry_multiplicity
 _atom_site_fract_x
 _atom_site_fract_y
 _atom_site_fract_z
 _atom_site_fract_occupancy
 Ge  Ge1  1  0.99296  0.08929  0.09629  1
 Ge  Ge2  1  0.49296  0.91071  0.90371  1
 Ge  Ge3  1  0.49296  0.41071  0.09629  1
 Ge  Ge4  1  0.99296  0.58929  0.90371  1
 K  K1  1  0.02371  0.04564  0.63650  1
 K  K2  1  0.52371  0.45436  0.63650  1
 K  K3  1  0.52371  0.95436  0.36350  1
 K  K4  1  0.02371  0.54564  0.36350  1
 N  N1  1  0.64707  0.62587  0.95573  1
 N  N2  1  0.14707  0.37413  0.04427  1
 N  N3  1  0.14707  0.87413  0.95573  1
 N  N4  1  0.64707  0.12587  0.04427  1
 O  O1  1  0.52826  0.97460  0.69290  1
 O  O2  1  0.52826  0.47460  0.30710  1
 O  O3  1  0.02826  0.52540  0.69290  1
 O  O4  1  0.02826  0.02540  0.30710  1
