CIF file written using JARVIS-Tools package.
data_CdAuO2
_symmetry_space_group_name_H-M  'P-1'
_cell_length_a       4.08853
_cell_length_b       5.54539
_cell_length_c       6.04785
_cell_angle_alpha    115.728
_cell_angle_beta     105.955
_cell_angle_gamma    86.7651

_symmetry_Int_Tables_number  2
_chemical_formula_structural  CdAuO2
_chemical_formula_sum  Cd2Au2O4
_cell_volume  118.45452753085952
_cell_formula_units_Z  2
loop_
  _symmetry_equiv_pos_site_id
 _symmetry_equiv_pos_as_xyz
 1  'x, y, z'
loop_
 _atom_site_type_symbol
 _atom_site_label
 _atom_site_symmetry_multiplicity
 _atom_site_fract_x
 _atom_site_fract_y
 _atom_site_fract_z
 _atom_site_fract_occupancy
 Au  Au1  1  0.50000  -0.00000  -0.00000  1
 Au  Au2  1  -0.00000  0.50000  0.00000  1
 Cd  Cd1  1  0.27116  0.26988  0.53282  1
 Cd  Cd2  1  0.72884  0.73012  0.46718  1
 O  O1  1  0.68181  0.16220  0.80927  1
 O  O2  1  0.31819  0.83780  0.19073  1
 O  O3  1  0.71679  0.27986  0.35895  1
 O  O4  1  0.28321  0.72014  0.64105  1
