CIF file written using JARVIS-Tools package.
data_BaSeO3
_symmetry_space_group_name_H-M  'P2_1/m'
_cell_length_a       4.72935
_cell_length_b       5.69998
_cell_length_c       6.88322
_cell_angle_alpha    90
_cell_angle_beta     107.08
_cell_angle_gamma    90

_symmetry_Int_Tables_number  11
_chemical_formula_structural  BaSeO3
_chemical_formula_sum  Ba2Se2O6
_cell_volume  177.3688637109872
_cell_formula_units_Z  2
loop_
  _symmetry_equiv_pos_site_id
 _symmetry_equiv_pos_as_xyz
 1  'x, y, z'
loop_
 _atom_site_type_symbol
 _atom_site_label
 _atom_site_symmetry_multiplicity
 _atom_site_fract_x
 _atom_site_fract_y
 _atom_site_fract_z
 _atom_site_fract_occupancy
 Ba  Ba1  1  0.65761  0.25000  0.29368  1
 Ba  Ba2  1  0.34239  0.75000  0.70632  1
 O  O1  1  0.82346  0.01539  0.67741  1
 O  O2  1  0.17654  0.51539  0.32259  1
 O  O3  1  0.17654  0.98461  0.32259  1
 O  O4  1  0.82346  0.48461  0.67741  1
 O  O5  1  0.31202  0.25000  0.88136  1
 O  O6  1  0.68798  0.75000  0.11864  1
 Se  Se1  1  0.06653  0.75000  0.15911  1
 Se  Se2  1  0.93347  0.25000  0.84089  1
