CIF file written using JARVIS-Tools package.
data_Al2W
_symmetry_space_group_name_H-M  'P6_422'
_cell_length_a       4.87778
_cell_length_b       4.87778
_cell_length_c       6.80522
_cell_angle_alpha    90
_cell_angle_beta     90
_cell_angle_gamma    120

_symmetry_Int_Tables_number  181
_chemical_formula_structural  Al2W
_chemical_formula_sum  Al6W3
_cell_volume  140.2224303586567
_cell_formula_units_Z  3
loop_
  _symmetry_equiv_pos_site_id
 _symmetry_equiv_pos_as_xyz
 1  'x, y, z'
loop_
 _atom_site_type_symbol
 _atom_site_label
 _atom_site_symmetry_multiplicity
 _atom_site_fract_x
 _atom_site_fract_y
 _atom_site_fract_z
 _atom_site_fract_occupancy
 Al  Al1  1  0.16897  0.83103  0.66667  1
 Al  Al2  1  0.83103  0.66206  0.00000  1
 Al  Al3  1  0.33794  0.16897  0.33333  1
 Al  Al4  1  0.83103  0.16897  0.66667  1
 Al  Al5  1  0.16897  0.33794  0.00000  1
 Al  Al6  1  0.66206  0.83103  0.33333  1
 W  W1  1  -0.00000  0.50000  0.33333  1
 W  W2  1  0.50000  -0.00000  0.00000  1
 W  W3  1  0.50000  0.50000  0.66667  1
