CIF file written using JARVIS-Tools package.
data_Sm4Sb3
_symmetry_space_group_name_H-M  'I-43d'
_cell_length_a       8.1092
_cell_length_b       8.10921
_cell_length_c       8.10921
_cell_angle_alpha    109.471
_cell_angle_beta     109.471
_cell_angle_gamma    109.471

_symmetry_Int_Tables_number  220
_chemical_formula_structural  Sm4Sb3
_chemical_formula_sum  Sm8Sb6
_cell_volume  410.4998367875452
_cell_formula_units_Z  2
loop_
  _symmetry_equiv_pos_site_id
 _symmetry_equiv_pos_as_xyz
 1  'x, y, z'
loop_
 _atom_site_type_symbol
 _atom_site_label
 _atom_site_symmetry_multiplicity
 _atom_site_fract_x
 _atom_site_fract_y
 _atom_site_fract_z
 _atom_site_fract_occupancy
 Sb  Sb1  1  0.75000  0.87500  0.12500  1
 Sb  Sb2  1  0.62500  0.37500  0.25000  1
 Sb  Sb3  1  0.87500  0.12500  0.75000  1
 Sb  Sb4  1  0.12500  0.75000  0.87500  1
 Sb  Sb5  1  0.37500  0.25000  0.62500  1
 Sb  Sb6  1  0.25000  0.62500  0.37500  1
 Sm  Sm1  1  0.35725  0.50000  0.00000  1
 Sm  Sm2  1  0.64275  0.64275  0.64275  1
 Sm  Sm3  1  0.50000  0.00000  0.35725  1
 Sm  Sm4  1  -0.00000  0.35725  0.50000  1
 Sm  Sm5  1  0.50000  0.00000  0.85725  1
 Sm  Sm6  1  -0.00000  0.85725  0.50000  1
 Sm  Sm7  1  0.85725  0.50000  0.00000  1
 Sm  Sm8  1  0.14275  0.14275  0.14275  1
