CIF file written using JARVIS-Tools package.
data_TiSb2
_symmetry_space_group_name_H-M  'I4/mcm'
_cell_length_a       5.58426
_cell_length_b       5.58426
_cell_length_c       5.58426
_cell_angle_alpha    105.837
_cell_angle_beta     105.837
_cell_angle_gamma    117.013

_symmetry_Int_Tables_number  140
_chemical_formula_structural  TiSb2
_chemical_formula_sum  Ti2Sb4
_cell_volume  132.288998271767
_cell_formula_units_Z  2
loop_
  _symmetry_equiv_pos_site_id
 _symmetry_equiv_pos_as_xyz
 1  'x, y, z'
loop_
 _atom_site_type_symbol
 _atom_site_label
 _atom_site_symmetry_multiplicity
 _atom_site_fract_x
 _atom_site_fract_y
 _atom_site_fract_z
 _atom_site_fract_occupancy
 Sb  Sb1  1  0.84707  0.65293  0.50000  1
 Sb  Sb2  1  0.34707  0.84707  0.19413  1
 Sb  Sb3  1  0.15293  0.34707  0.50000  1
 Sb  Sb4  1  0.65293  0.15293  0.80587  1
 Ti  Ti1  1  0.75000  0.75000  0.00000  1
 Ti  Ti2  1  0.25000  0.25000  0.00000  1
