CIF file written using JARVIS-Tools package.
data_PrAl2Zn2
_symmetry_space_group_name_H-M  'I4/mmm'
_cell_length_a       4.22741
_cell_length_b       4.22741
_cell_length_c       6.25164
_cell_angle_alpha    109.761
_cell_angle_beta     109.761
_cell_angle_gamma    90

_symmetry_Int_Tables_number  139
_chemical_formula_structural  PrAl2Zn2
_chemical_formula_sum  PrAl2Zn2
_cell_volume  98.12411755225028
_cell_formula_units_Z  1
loop_
  _symmetry_equiv_pos_site_id
 _symmetry_equiv_pos_as_xyz
 1  'x, y, z'
loop_
 _atom_site_type_symbol
 _atom_site_label
 _atom_site_symmetry_multiplicity
 _atom_site_fract_x
 _atom_site_fract_y
 _atom_site_fract_z
 _atom_site_fract_occupancy
 Al  Al1  1  0.75000  0.25000  0.50000  1
 Al  Al2  1  0.25000  0.75000  0.50000  1
 Pr  Pr1  1  0.00000  0.00000  0.00000  1
 Zn  Zn1  1  0.61200  0.61200  0.22401  1
 Zn  Zn2  1  0.38800  0.38800  0.77599  1
