CIF file written using JARVIS-Tools package.
data_Mn2ZnO4
_symmetry_space_group_name_H-M  'Fd-3m'
_cell_length_a       5.98892
_cell_length_b       5.98884
_cell_length_c       5.98885
_cell_angle_alpha    60.0011
_cell_angle_beta     60.0003
_cell_angle_gamma    60.0007

_symmetry_Int_Tables_number  227
_chemical_formula_structural  Mn2ZnO4
_chemical_formula_sum  Mn4Zn2O8
_cell_volume  151.88887306550245
_cell_formula_units_Z  2
loop_
  _symmetry_equiv_pos_site_id
 _symmetry_equiv_pos_as_xyz
 1  'x, y, z'
loop_
 _atom_site_type_symbol
 _atom_site_label
 _atom_site_symmetry_multiplicity
 _atom_site_fract_x
 _atom_site_fract_y
 _atom_site_fract_z
 _atom_site_fract_occupancy
 Mn  Mn1  1  0.50000  0.00000  0.50000  1
 Mn  Mn2  1  1.00000  0.50000  0.50000  1
 Mn  Mn3  1  0.50000  0.50000  1.00000  1
 Mn  Mn4  1  0.50000  0.50000  0.50000  1
 O  O1  1  0.73848  0.73846  0.73846  1
 O  O2  1  0.26154  0.26156  0.71559  1
 O  O3  1  0.26154  0.71560  0.26155  1
 O  O4  1  0.71559  0.26156  0.26153  1
 O  O5  1  0.73846  0.28440  0.73845  1
 O  O6  1  0.28441  0.73844  0.73847  1
 O  O7  1  0.26152  0.26154  0.26154  1
 O  O8  1  0.73846  0.73844  0.28441  1
 Zn  Zn1  1  0.87497  0.87495  0.87497  1
 Zn  Zn2  1  0.12503  0.12505  0.12503  1
