CIF file written using JARVIS-Tools package.
data_TbRh3C
_symmetry_space_group_name_H-M  'Pm-3m'
_cell_length_a       4.17685
_cell_length_b       4.17685
_cell_length_c       4.17685
_cell_angle_alpha    90
_cell_angle_beta     90
_cell_angle_gamma    90

_symmetry_Int_Tables_number  221
_chemical_formula_structural  TbRh3C
_chemical_formula_sum  TbRh3C
_cell_volume  72.86968333316284
_cell_formula_units_Z  1
loop_
  _symmetry_equiv_pos_site_id
 _symmetry_equiv_pos_as_xyz
 1  'x, y, z'
loop_
 _atom_site_type_symbol
 _atom_site_label
 _atom_site_symmetry_multiplicity
 _atom_site_fract_x
 _atom_site_fract_y
 _atom_site_fract_z
 _atom_site_fract_occupancy
 C  C1  1  0.50000  0.50000  0.50000  1
 Rh  Rh1  1  0.00000  0.50000  0.50000  1
 Rh  Rh2  1  0.50000  0.50000  0.00000  1
 Rh  Rh3  1  0.50000  0.00000  0.50000  1
 Tb  Tb1  1  0.00000  0.00000  0.00000  1
