CIF file written using JARVIS-Tools package.
data_H6PbCNCl3
_symmetry_space_group_name_H-M  'Pm'
_cell_length_a       5.70262
_cell_length_b       5.64361
_cell_length_c       5.77797
_cell_angle_alpha    90.0043
_cell_angle_beta     87.5821
_cell_angle_gamma    89.999

_symmetry_Int_Tables_number  6
_chemical_formula_structural  H6PbCNCl3
_chemical_formula_sum  H6PbCNCl3
_cell_volume  185.7889589875143
_cell_formula_units_Z  1
loop_
  _symmetry_equiv_pos_site_id
 _symmetry_equiv_pos_as_xyz
 1  'x, y, z'
loop_
 _atom_site_type_symbol
 _atom_site_label
 _atom_site_symmetry_multiplicity
 _atom_site_fract_x
 _atom_site_fract_y
 _atom_site_fract_z
 _atom_site_fract_occupancy
 C  C1  1  0.90244  -0.00006  0.94530  1
 Cl  Cl1  1  0.43406  0.49994  0.98709  1
 Cl  Cl2  1  0.44005  0.99994  0.52956  1
 Cl  Cl3  1  0.97554  0.49993  0.44138  1
 H  H1  1  0.94026  0.99990  0.75780  1
 H  H2  1  0.80390  0.15979  -0.00368  1
 H  H3  1  0.80387  0.84015  -0.00363  1
 H  H4  1  0.22947  0.14970  0.02083  1
 H  H5  1  0.22945  0.85015  0.02086  1
 H  H6  1  0.10681  0.99998  0.24325  1
 N  N1  1  0.12991  0.99994  0.06452  1
 Pb  Pb1  1  0.48223  0.49994  0.49252  1
