CIF file written using JARVIS-Tools package.
data_Rb2TiCu2S4
_symmetry_space_group_name_H-M  'P4_2/mcm'
_cell_length_a       5.60882
_cell_length_b       5.60882
_cell_length_c       13.1967
_cell_angle_alpha    90
_cell_angle_beta     90
_cell_angle_gamma    90

_symmetry_Int_Tables_number  132
_chemical_formula_structural  Rb2TiCu2S4
_chemical_formula_sum  Rb4Ti2Cu4S8
_cell_volume  415.15308442757896
_cell_formula_units_Z  2
loop_
  _symmetry_equiv_pos_site_id
 _symmetry_equiv_pos_as_xyz
 1  'x, y, z'
loop_
 _atom_site_type_symbol
 _atom_site_label
 _atom_site_symmetry_multiplicity
 _atom_site_fract_x
 _atom_site_fract_y
 _atom_site_fract_z
 _atom_site_fract_occupancy
 Cu  Cu1  1  0.00000  0.50000  0.75000  1
 Cu  Cu2  1  0.50000  0.00000  0.75000  1
 Cu  Cu3  1  0.00000  0.50000  0.25000  1
 Cu  Cu4  1  0.50000  0.00000  0.25000  1
 Rb  Rb1  1  0.76213  0.76213  0.00000  1
 Rb  Rb2  1  0.23787  0.23787  0.00000  1
 Rb  Rb3  1  0.76213  0.23787  0.50000  1
 Rb  Rb4  1  0.23787  0.76213  0.50000  1
 S  S1  1  0.26207  0.26207  0.34793  1
 S  S2  1  0.26207  0.73793  0.15207  1
 S  S3  1  0.73793  0.73793  0.65207  1
 S  S4  1  0.26207  0.26207  0.65207  1
 S  S5  1  0.73793  0.73793  0.34793  1
 S  S6  1  0.73793  0.26207  0.15207  1
 S  S7  1  0.26207  0.73793  0.84793  1
 S  S8  1  0.73793  0.26207  0.84793  1
 Ti  Ti1  1  0.50000  0.50000  0.25000  1
 Ti  Ti2  1  0.50000  0.50000  0.75000  1
