CIF file written using JARVIS-Tools package.
data_NaPrS2
_symmetry_space_group_name_H-M  'I4_1/amd'
_cell_length_a       5.74783
_cell_length_b       5.74788
_cell_length_c       7.20374
_cell_angle_alpha    113.511
_cell_angle_beta     113.51
_cell_angle_gamma    90.0011

_symmetry_Int_Tables_number  141
_chemical_formula_structural  NaPrS2
_chemical_formula_sum  Na2Pr2S4
_cell_volume  196.50396337197984
_cell_formula_units_Z  2
loop_
  _symmetry_equiv_pos_site_id
 _symmetry_equiv_pos_as_xyz
 1  'x, y, z'
loop_
 _atom_site_type_symbol
 _atom_site_label
 _atom_site_symmetry_multiplicity
 _atom_site_fract_x
 _atom_site_fract_y
 _atom_site_fract_z
 _atom_site_fract_occupancy
 Na  Na1  1  0.74874  0.24752  0.49933  1
 Na  Na2  1  0.49884  0.49747  0.99928  1
 Pr  Pr1  1  0.99878  0.99748  -0.00071  1
 Pr  Pr2  1  0.24873  0.74746  0.49926  1
 S  S1  1  0.75861  0.75733  0.51902  1
 S  S2  1  0.00867  0.50733  0.01903  1
 S  S3  1  0.23885  0.23759  0.47952  1
 S  S4  1  0.48891  0.98760  0.97953  1
