CIF file written using JARVIS-Tools package.
data_UAl4
_symmetry_space_group_name_H-M  'Imma'
_cell_length_a       4.40932
_cell_length_b       6.21948
_cell_length_c       7.91437
_cell_angle_alpha    113.136
_cell_angle_beta     106.174
_cell_angle_gamma    90

_symmetry_Int_Tables_number  74
_chemical_formula_structural  UAl4
_chemical_formula_sum  U2Al8
_cell_volume  190.20711306845027
_cell_formula_units_Z  2
loop_
  _symmetry_equiv_pos_site_id
 _symmetry_equiv_pos_as_xyz
 1  'x, y, z'
loop_
 _atom_site_type_symbol
 _atom_site_label
 _atom_site_symmetry_multiplicity
 _atom_site_fract_x
 _atom_site_fract_y
 _atom_site_fract_z
 _atom_site_fract_occupancy
 Al  Al1  1  0.30141  0.27652  0.60281  1
 Al  Al2  1  0.69859  0.17370  0.39719  1
 Al  Al3  1  0.30141  0.82630  0.60281  1
 Al  Al4  1  0.50000  0.50000  0.00000  1
 Al  Al5  1  0.69859  0.72348  0.39719  1
 Al  Al6  1  0.11186  0.86186  0.22373  1
 Al  Al7  1  0.88814  0.13814  0.77627  1
 Al  Al8  1  0.50000  -0.00000  0.00000  1
 U  U1  1  0.11046  0.36046  0.22091  1
 U  U2  1  0.88954  0.63954  0.77909  1
