CIF file written using JARVIS-Tools package.
data_MnZnO2
_symmetry_space_group_name_H-M  'P-1'
_cell_length_a       3.10157
_cell_length_b       8.05078
_cell_length_c       8.40508
_cell_angle_alpha    90.2278
_cell_angle_beta     84.2747
_cell_angle_gamma    87.3434

_symmetry_Int_Tables_number  2
_chemical_formula_structural  MnZnO2
_chemical_formula_sum  Mn4Zn4O8
_cell_volume  208.59589366818986
_cell_formula_units_Z  4
loop_
  _symmetry_equiv_pos_site_id
 _symmetry_equiv_pos_as_xyz
 1  'x, y, z'
loop_
 _atom_site_type_symbol
 _atom_site_label
 _atom_site_symmetry_multiplicity
 _atom_site_fract_x
 _atom_site_fract_y
 _atom_site_fract_z
 _atom_site_fract_occupancy
 Mn  Mn1  1  0.04944  0.24171  0.41441  1
 Mn  Mn2  1  0.29993  0.40115  0.77071  1
 Mn  Mn3  1  0.72412  0.57877  0.20109  1
 Mn  Mn4  1  0.97468  0.73820  0.55739  1
 O  O1  1  0.52109  0.72595  0.40416  1
 O  O2  1  0.20992  0.38254  0.21121  1
 O  O3  1  0.81412  0.59737  0.76058  1
 O  O4  1  0.50301  0.25398  0.56763  1
 O  O5  1  0.82810  0.06262  0.25557  1
 O  O6  1  0.78178  0.25735  0.87360  1
 O  O7  1  0.19586  0.91730  0.71625  1
 O  O8  1  0.24225  0.72257  0.09820  1
 Zn  Zn1  1  0.67182  0.07207  0.72641  1
 Zn  Zn2  1  0.35213  0.90785  0.24539  1
 Zn  Zn3  1  0.26981  0.73735  0.87262  1
 Zn  Zn4  1  0.75433  0.24255  0.09917  1
