CIF file written using JARVIS-Tools package.
data_TbLiO2
_symmetry_space_group_name_H-M  'Pnma'
_cell_length_a       3.40297
_cell_length_b       5.2943
_cell_length_c       11.2704
_cell_angle_alpha    90
_cell_angle_beta     90
_cell_angle_gamma    90

_symmetry_Int_Tables_number  62
_chemical_formula_structural  TbLiO2
_chemical_formula_sum  Tb4Li4O8
_cell_volume  203.05114833150552
_cell_formula_units_Z  4
loop_
  _symmetry_equiv_pos_site_id
 _symmetry_equiv_pos_as_xyz
 1  'x, y, z'
loop_
 _atom_site_type_symbol
 _atom_site_label
 _atom_site_symmetry_multiplicity
 _atom_site_fract_x
 _atom_site_fract_y
 _atom_site_fract_z
 _atom_site_fract_occupancy
 Li  Li1  1  0.25000  0.09545  0.56566  1
 Li  Li2  1  0.75000  0.90455  0.43434  1
 Li  Li3  1  0.75000  0.59545  0.93434  1
 Li  Li4  1  0.25000  0.40455  0.06566  1
 O  O1  1  0.25000  0.30131  0.70321  1
 O  O2  1  0.75000  0.69869  0.29679  1
 O  O3  1  0.75000  0.80131  0.79679  1
 O  O4  1  0.25000  0.19869  0.20321  1
 O  O5  1  0.25000  0.75627  0.02710  1
 O  O6  1  0.75000  0.24373  0.97290  1
 O  O7  1  0.75000  0.25627  0.47290  1
 O  O8  1  0.25000  0.74373  0.52710  1
 Tb  Tb1  1  0.25000  0.45480  0.35969  1
 Tb  Tb2  1  0.75000  0.54520  0.64031  1
 Tb  Tb3  1  0.75000  0.95480  0.14031  1
 Tb  Tb4  1  0.25000  0.04520  0.85969  1
