CIF file written using JARVIS-Tools package.
data_TeMoWSe2S
_symmetry_space_group_name_H-M  'P3m1'
_cell_length_a       3.35427
_cell_length_b       3.35428
_cell_length_c       37.8345
_cell_angle_alpha    90.0009
_cell_angle_beta     90
_cell_angle_gamma    120

_symmetry_Int_Tables_number  156
_chemical_formula_structural  TeMoWSe2S
_chemical_formula_sum  Te2Mo2W2Se4S2
_cell_volume  368.65205445114225
_cell_formula_units_Z  2
loop_
  _symmetry_equiv_pos_site_id
 _symmetry_equiv_pos_as_xyz
 1  'x, y, z'
loop_
 _atom_site_type_symbol
 _atom_site_label
 _atom_site_symmetry_multiplicity
 _atom_site_fract_x
 _atom_site_fract_y
 _atom_site_fract_z
 _atom_site_fract_occupancy
 Mo  Mo1  1  0.33331  0.66663  0.09392  1
 Mo  Mo2  1  0.66670  0.33340  0.28177  1
 S  S1  1  0.66664  0.33329  0.42935  1
 S  S2  1  0.66665  0.33329  0.50996  1
 Se  Se1  1  0.33336  0.66672  0.32586  1
 Se  Se2  1  0.66664  0.33328  0.05012  1
 Se  Se3  1  0.66665  0.33329  0.13796  1
 Se  Se4  1  0.33335  0.66671  0.23778  1
 Te  Te1  1  0.33335  0.66671  0.70782  1
 Te  Te2  1  0.33335  0.66670  0.60703  1
 W  W1  1  0.33331  0.66662  0.46961  1
 W  W2  1  0.66668  0.33337  0.65757  1
