CIF file written using JARVIS-Tools package.
data_CaSb2O4
_symmetry_space_group_name_H-M  'Cmcm'
_cell_length_a       3.33291
_cell_length_b       5.83242
_cell_length_c       11.151
_cell_angle_alpha    90
_cell_angle_beta     90
_cell_angle_gamma    106.602

_symmetry_Int_Tables_number  63
_chemical_formula_structural  CaSb2O4
_chemical_formula_sum  Ca2Sb4O8
_cell_volume  207.7268341493236
_cell_formula_units_Z  2
loop_
  _symmetry_equiv_pos_site_id
 _symmetry_equiv_pos_as_xyz
 1  'x, y, z'
loop_
 _atom_site_type_symbol
 _atom_site_label
 _atom_site_symmetry_multiplicity
 _atom_site_fract_x
 _atom_site_fract_y
 _atom_site_fract_z
 _atom_site_fract_occupancy
 Ca  Ca1  1  0.38341  0.76683  0.75000  1
 Ca  Ca2  1  0.61659  0.23317  0.25000  1
 O  O1  1  0.22892  0.45784  0.37685  1
 O  O2  1  0.77108  0.54216  0.62315  1
 O  O3  1  0.77108  0.54216  0.87685  1
 O  O4  1  0.22892  0.45784  0.12315  1
 O  O5  1  0.96543  0.93087  0.25000  1
 O  O6  1  0.03457  0.06913  0.75000  1
 O  O7  1  0.50000  0.00000  0.00000  1
 O  O8  1  0.50000  0.00000  0.50000  1
 Sb  Sb1  1  0.86822  0.73644  0.07848  1
 Sb  Sb2  1  0.13178  0.26356  0.92152  1
 Sb  Sb3  1  0.86822  0.73644  0.42152  1
 Sb  Sb4  1  0.13178  0.26356  0.57848  1
