CIF file written using JARVIS-Tools package.
data_SrCrF4
_symmetry_space_group_name_H-M  'C2/m'
_cell_length_a       5.77312
_cell_length_b       5.92127
_cell_length_c       6.34088
_cell_angle_alpha    106.907
_cell_angle_beta     117.086
_cell_angle_gamma    89.9952

_symmetry_Int_Tables_number  12
_chemical_formula_structural  SrCrF4
_chemical_formula_sum  Sr2Cr2F8
_cell_volume  182.40276142665303
_cell_formula_units_Z  2
loop_
  _symmetry_equiv_pos_site_id
 _symmetry_equiv_pos_as_xyz
 1  'x, y, z'
loop_
 _atom_site_type_symbol
 _atom_site_label
 _atom_site_symmetry_multiplicity
 _atom_site_fract_x
 _atom_site_fract_y
 _atom_site_fract_z
 _atom_site_fract_occupancy
 Cr  Cr1  1  0.75017  0.75001  0.00001  1
 Cr  Cr2  1  0.24983  0.24999  -0.00001  1
 F  F1  1  0.59755  0.19721  0.23509  1
 F  F2  1  0.13722  0.19701  0.23502  1
 F  F3  1  0.86278  0.80299  0.76498  1
 F  F4  1  0.36242  0.30276  0.76491  1
 F  F5  1  0.90215  0.30302  0.76499  1
 F  F6  1  0.09785  0.69698  0.23501  1
 F  F7  1  0.63758  0.69724  0.23509  1
 F  F8  1  0.40245  0.80279  0.76491  1
 Sr  Sr1  1  -0.00000  0.50000  0.50000  1
 Sr  Sr2  1  0.50000  0.00000  0.50000  1
