CIF file written using JARVIS-Tools package.
data_Nb3CoS6
_symmetry_space_group_name_H-M  'P6_322'
_cell_length_a       5.79364
_cell_length_b       5.79364
_cell_length_c       11.6671
_cell_angle_alpha    90
_cell_angle_beta     90
_cell_angle_gamma    120

_symmetry_Int_Tables_number  182
_chemical_formula_structural  Nb3CoS6
_chemical_formula_sum  Nb6Co2S2
_cell_volume  339.155483530556
_cell_formula_units_Z  2
loop_
  _symmetry_equiv_pos_site_id
 _symmetry_equiv_pos_as_xyz
 1  'x, y, z'
loop_
 _atom_site_type_symbol
 _atom_site_label
 _atom_site_symmetry_multiplicity
 _atom_site_fract_x
 _atom_site_fract_y
 _atom_site_fract_z
 _atom_site_fract_occupancy
 Co  Co1  1  0.66667  0.33333  0.25000  1
 Co  Co2  1  0.33333  0.66667  0.75000  1
 Nb  Nb1  1  0.33333  0.66667  0.00415  1
 Nb  Nb2  1  0.66667  0.33333  0.50415  1
 Nb  Nb3  1  0.33333  0.66667  0.49585  1
 Nb  Nb4  1  0.00000  0.00000  0.00000  1
 Nb  Nb5  1  0.66667  0.33333  0.99585  1
 Nb  Nb6  1  0.00000  0.00000  0.50000  1
 S  S1  1  0.00402  0.33557  0.86396  1
 S  S2  1  0.66443  0.66844  0.86396  1
 S  S3  1  0.00402  0.66844  0.63604  1
 S  S4  1  0.33156  0.99598  0.86396  1
 S  S5  1  0.66844  0.00402  0.36396  1
 S  S6  1  0.66844  0.66443  0.13604  1
 S  S7  1  0.66443  0.99598  0.63604  1
 S  S8  1  0.99598  0.33156  0.13604  1
 S  S9  1  0.33557  0.33156  0.36396  1
 S  S10  1  0.33156  0.33557  0.63604  1
 S  S11  1  0.33557  0.00402  0.13604  1
 S  S12  1  0.99598  0.66443  0.36396  1
