CIF file written using JARVIS-Tools package.
data_Te2Mo
_symmetry_space_group_name_H-M  'P6_3/mmc'
_cell_length_a       3.56929
_cell_length_b       3.5693
_cell_length_c       28.5019
_cell_angle_alpha    90
_cell_angle_beta     90
_cell_angle_gamma    120

_symmetry_Int_Tables_number  194
_chemical_formula_structural  Te2Mo
_chemical_formula_sum  Te8Mo4
_cell_volume  314.4626003251805
_cell_formula_units_Z  4
loop_
  _symmetry_equiv_pos_site_id
 _symmetry_equiv_pos_as_xyz
 1  'x, y, z'
loop_
 _atom_site_type_symbol
 _atom_site_label
 _atom_site_symmetry_multiplicity
 _atom_site_fract_x
 _atom_site_fract_y
 _atom_site_fract_z
 _atom_site_fract_occupancy
 Mo  Mo1  1  0.33333  0.66667  0.00216  1
 Mo  Mo2  1  0.33333  0.66667  0.50214  1
 Mo  Mo3  1  0.66667  0.33333  0.25212  1
 Mo  Mo4  1  0.66667  0.33333  0.75210  1
 Te  Te1  1  0.33333  0.66667  0.18855  1
 Te  Te2  1  0.33333  0.66667  0.68853  1
 Te  Te3  1  0.66667  0.33333  0.93859  1
 Te  Te4  1  0.66667  0.33333  0.43857  1
 Te  Te5  1  0.66667  0.33333  0.06573  1
 Te  Te6  1  0.66667  0.33333  0.56571  1
 Te  Te7  1  0.33333  0.66667  0.31569  1
 Te  Te8  1  0.33333  0.66667  0.81567  1
