CIF file written using JARVIS-Tools package.
data_Al2Se3
_symmetry_space_group_name_H-M  'Cc'
_cell_length_a       6.76373
_cell_length_b       6.78716
_cell_length_c       7.4181
_cell_angle_alpha    116.573
_cell_angle_beta     90
_cell_angle_gamma    119.886

_symmetry_Int_Tables_number  9
_chemical_formula_structural  Al2Se3
_chemical_formula_sum  Al4Se6
_cell_volume  252.91984954681632
_cell_formula_units_Z  2
loop_
  _symmetry_equiv_pos_site_id
 _symmetry_equiv_pos_as_xyz
 1  'x, y, z'
loop_
 _atom_site_type_symbol
 _atom_site_label
 _atom_site_symmetry_multiplicity
 _atom_site_fract_x
 _atom_site_fract_y
 _atom_site_fract_z
 _atom_site_fract_occupancy
 Al  Al1  1  0.63816  0.08338  0.12807  1
 Al  Al2  1  0.44522  0.08338  0.62807  1
 Al  Al3  1  0.26733  0.40040  0.11692  1
 Al  Al4  1  0.13307  0.40040  0.61692  1
 Se  Se1  1  0.90940  0.98855  0.98836  1
 Se  Se2  1  0.07916  0.98855  0.48836  1
 Se  Se3  1  0.59354  0.35122  0.01336  1
 Se  Se4  1  0.75767  0.35122  0.51336  1
 Se  Se5  1  0.24195  0.67625  0.00329  1
 Se  Se6  1  0.43430  0.67625  0.50329  1
