CIF file written using JARVIS-Tools package.
data_Li3CuF4
_symmetry_space_group_name_H-M  'Pmn2_1'
_cell_length_a       5.08999
_cell_length_b       5.47695
_cell_length_c       6.30077
_cell_angle_alpha    90
_cell_angle_beta     90
_cell_angle_gamma    90

_symmetry_Int_Tables_number  31
_chemical_formula_structural  Li3CuF4
_chemical_formula_sum  Li6Cu2F8
_cell_volume  175.65040944525444
_cell_formula_units_Z  2
loop_
  _symmetry_equiv_pos_site_id
 _symmetry_equiv_pos_as_xyz
 1  'x, y, z'
loop_
 _atom_site_type_symbol
 _atom_site_label
 _atom_site_symmetry_multiplicity
 _atom_site_fract_x
 _atom_site_fract_y
 _atom_site_fract_z
 _atom_site_fract_occupancy
 Cu  Cu1  1  -0.00065  0.15786  0.00000  1
 Cu  Cu2  1  0.49935  0.84214  0.50000  1
 F  F1  1  0.13830  0.79856  0.00000  1
 F  F2  1  0.58804  0.15946  0.00000  1
 F  F3  1  0.63804  0.65324  0.23083  1
 F  F4  1  0.13804  0.34676  0.26917  1
 F  F5  1  0.08804  0.84054  0.50000  1
 F  F6  1  0.63830  0.20144  0.50000  1
 F  F7  1  0.13804  0.34676  0.73083  1
 F  F8  1  0.63804  0.65324  0.76917  1
 Li  Li1  1  0.50480  0.82487  0.00000  1
 Li  Li2  1  0.50434  0.33681  0.24910  1
 Li  Li3  1  0.00434  0.66319  0.25090  1
 Li  Li4  1  0.00480  0.17513  0.50000  1
 Li  Li5  1  0.00434  0.66319  0.74910  1
 Li  Li6  1  0.50434  0.33681  0.75090  1
