CIF file written using JARVIS-Tools package.
data_ZnS
_symmetry_space_group_name_H-M  'P6_3mc'
_cell_length_a       3.83994
_cell_length_b       3.83994
_cell_length_c       18.8525
_cell_angle_alpha    90
_cell_angle_beta     90
_cell_angle_gamma    120

_symmetry_Int_Tables_number  186
_chemical_formula_structural  ZnS
_chemical_formula_sum  Zn6S6
_cell_volume  240.7400825718359
_cell_formula_units_Z  6
loop_
  _symmetry_equiv_pos_site_id
 _symmetry_equiv_pos_as_xyz
 1  'x, y, z'
loop_
 _atom_site_type_symbol
 _atom_site_label
 _atom_site_symmetry_multiplicity
 _atom_site_fract_x
 _atom_site_fract_y
 _atom_site_fract_z
 _atom_site_fract_occupancy
 S  S1  1  0.33333  0.66667  0.04193  1
 S  S2  1  0.66667  0.33333  0.54193  1
 S  S3  1  0.66667  0.33333  0.20836  1
 S  S4  1  0.33333  0.66667  0.70836  1
 S  S5  1  0.00000  0.00000  0.37491  1
 S  S6  1  0.00000  0.00000  0.87491  1
 Zn  Zn1  1  0.33333  0.66667  0.16671  1
 Zn  Zn2  1  0.66667  0.33333  0.66671  1
 Zn  Zn3  1  0.66667  0.33333  0.33312  1
 Zn  Zn4  1  0.33333  0.66667  0.83312  1
 Zn  Zn5  1  0.00000  0.00000  0.49997  1
 Zn  Zn6  1  0.00000  0.00000  0.99997  1
