CIF file written using JARVIS-Tools package.
data_BAsO4
_symmetry_space_group_name_H-M  'P3_121'
_cell_length_a       4.57639
_cell_length_b       4.57639
_cell_length_c       10.4729
_cell_angle_alpha    90
_cell_angle_beta     90
_cell_angle_gamma    120

_symmetry_Int_Tables_number  152
_chemical_formula_structural  BAsO4
_chemical_formula_sum  B3As3O2
_cell_volume  189.9519659134179
_cell_formula_units_Z  3
loop_
  _symmetry_equiv_pos_site_id
 _symmetry_equiv_pos_as_xyz
 1  'x, y, z'
loop_
 _atom_site_type_symbol
 _atom_site_label
 _atom_site_symmetry_multiplicity
 _atom_site_fract_x
 _atom_site_fract_y
 _atom_site_fract_z
 _atom_site_fract_occupancy
 As  As1  1  0.00000  0.54510  0.66667  1
 As  As2  1  0.54510  0.00000  0.33333  1
 As  As3  1  0.45490  0.45490  0.00000  1
 B  B1  1  0.00000  0.54179  0.16667  1
 B  B2  1  0.45821  0.45821  0.50000  1
 B  B3  1  0.54179  0.00000  0.83333  1
 O  O1  1  0.12184  0.40137  0.53686  1
 O  O2  1  0.39281  0.07709  0.94474  1
 O  O3  1  0.07709  0.39281  0.05526  1
 O  O4  1  0.27953  0.87816  0.20353  1
 O  O5  1  0.92291  0.31572  0.27807  1
 O  O6  1  0.87816  0.27953  0.79647  1
 O  O7  1  0.40137  0.12184  0.46314  1
 O  O8  1  0.72047  0.59863  0.12981  1
 O  O9  1  0.60719  0.68428  0.38859  1
 O  O10  1  0.31572  0.92291  0.72193  1
 O  O11  1  0.59863  0.72047  0.87019  1
 O  O12  1  0.68428  0.60719  0.61141  1
