CIF file written using JARVIS-Tools package.
data_KH4O2F
_symmetry_space_group_name_H-M  'Pmc2_1'
_cell_length_a       4.0891
_cell_length_b       5.12988
_cell_length_c       8.77603
_cell_angle_alpha    90
_cell_angle_beta     90
_cell_angle_gamma    90

_symmetry_Int_Tables_number  26
_chemical_formula_structural  KH4O2F
_chemical_formula_sum  K2H8O4F2
_cell_volume  184.09108689643054
_cell_formula_units_Z  2
loop_
  _symmetry_equiv_pos_site_id
 _symmetry_equiv_pos_as_xyz
 1  'x, y, z'
loop_
 _atom_site_type_symbol
 _atom_site_label
 _atom_site_symmetry_multiplicity
 _atom_site_fract_x
 _atom_site_fract_y
 _atom_site_fract_z
 _atom_site_fract_occupancy
 F  F1  1  0.00000  0.09279  0.11025  1
 F  F2  1  0.00000  0.90721  0.61025  1
 H  H1  1  0.30763  0.90172  0.18038  1
 H  H2  1  0.69237  0.90172  0.18038  1
 H  H3  1  0.00000  0.22656  0.29013  1
 H  H4  1  0.00000  0.13788  0.46333  1
 H  H5  1  0.30763  0.09828  0.68038  1
 H  H6  1  0.69237  0.09828  0.68038  1
 H  H7  1  0.00000  0.77344  0.79013  1
 H  H8  1  0.00000  0.86212  0.96333  1
 K  K1  1  0.50000  0.60763  0.50027  1
 K  K2  1  0.50000  0.39237  0.00027  1
 O  O1  1  0.50000  0.79709  0.21252  1
 O  O2  1  0.00000  0.29308  0.39614  1
 O  O3  1  0.50000  0.20291  0.71252  1
 O  O4  1  0.00000  0.70692  0.89614  1
