CIF file written using JARVIS-Tools package.
data_ErFe4B
_symmetry_space_group_name_H-M  'P6/mmm'
_cell_length_a       5.00264
_cell_length_b       5.00264
_cell_length_c       7.00246
_cell_angle_alpha    90
_cell_angle_beta     90
_cell_angle_gamma    120

_symmetry_Int_Tables_number  191
_chemical_formula_structural  ErFe4B
_chemical_formula_sum  Er2Fe8B2
_cell_volume  151.76781683740958
_cell_formula_units_Z  2
loop_
  _symmetry_equiv_pos_site_id
 _symmetry_equiv_pos_as_xyz
 1  'x, y, z'
loop_
 _atom_site_type_symbol
 _atom_site_label
 _atom_site_symmetry_multiplicity
 _atom_site_fract_x
 _atom_site_fract_y
 _atom_site_fract_z
 _atom_site_fract_occupancy
 B  B1  1  0.33333  0.66667  0.50000  1
 B  B2  1  0.66667  0.33333  0.50000  1
 Er  Er1  1  0.00000  0.00000  0.00000  1
 Er  Er2  1  0.00000  0.00000  0.50000  1
 Fe  Fe1  1  0.33333  0.66667  0.00000  1
 Fe  Fe2  1  0.00000  0.50000  0.28500  1
 Fe  Fe3  1  0.50000  0.50000  0.71500  1
 Fe  Fe4  1  0.66667  0.33333  0.00000  1
 Fe  Fe5  1  0.50000  0.00000  0.71500  1
 Fe  Fe6  1  0.50000  0.50000  0.28500  1
 Fe  Fe7  1  0.00000  0.50000  0.71500  1
 Fe  Fe8  1  0.50000  0.00000  0.28500  1
