CIF file written using JARVIS-Tools package.
data_SrMgSi
_symmetry_space_group_name_H-M  'Pnma'
_cell_length_a       4.59711
_cell_length_b       7.80247
_cell_length_c       8.48104
_cell_angle_alpha    90
_cell_angle_beta     90
_cell_angle_gamma    90

_symmetry_Int_Tables_number  62
_chemical_formula_structural  SrMgSi
_chemical_formula_sum  Sr4Mg4Si4
_cell_volume  304.2048922085549
_cell_formula_units_Z  4
loop_
  _symmetry_equiv_pos_site_id
 _symmetry_equiv_pos_as_xyz
 1  'x, y, z'
loop_
 _atom_site_type_symbol
 _atom_site_label
 _atom_site_symmetry_multiplicity
 _atom_site_fract_x
 _atom_site_fract_y
 _atom_site_fract_z
 _atom_site_fract_occupancy
 Mg  Mg1  1  0.75000  0.35520  0.06516  1
 Mg  Mg2  1  0.25000  0.64480  0.93484  1
 Mg  Mg3  1  0.75000  0.85520  0.43484  1
 Mg  Mg4  1  0.25000  0.14480  0.56516  1
 Si  Si1  1  0.75000  0.21884  0.39125  1
 Si  Si2  1  0.25000  0.28116  0.89125  1
 Si  Si3  1  0.25000  0.78116  0.60875  1
 Si  Si4  1  0.75000  0.71884  0.10875  1
 Sr  Sr1  1  0.25000  0.01440  0.18414  1
 Sr  Sr2  1  0.25000  0.51440  0.31586  1
 Sr  Sr3  1  0.75000  0.48560  0.68414  1
 Sr  Sr4  1  0.75000  0.98560  0.81586  1
