CIF file written using JARVIS-Tools package.
data_HO
_symmetry_space_group_name_H-M  'P4_12_12'
_cell_length_a       3.98796
_cell_length_b       3.98796
_cell_length_c       7.58789
_cell_angle_alpha    90
_cell_angle_beta     90
_cell_angle_gamma    90

_symmetry_Int_Tables_number  92
_chemical_formula_structural  HO
_chemical_formula_sum  H8O8
_cell_volume  120.67666631954172
_cell_formula_units_Z  8
loop_
  _symmetry_equiv_pos_site_id
 _symmetry_equiv_pos_as_xyz
 1  'x, y, z'
loop_
 _atom_site_type_symbol
 _atom_site_label
 _atom_site_symmetry_multiplicity
 _atom_site_fract_x
 _atom_site_fract_y
 _atom_site_fract_z
 _atom_site_fract_occupancy
 H  H1  1  0.70654  0.06166  0.37964  1
 H  H2  1  0.29346  0.93834  0.87964  1
 H  H3  1  0.06166  0.70654  0.62036  1
 H  H4  1  0.56166  0.79346  0.12964  1
 H  H5  1  0.43834  0.20654  0.62964  1
 H  H6  1  0.79346  0.56166  0.87036  1
 H  H7  1  0.20654  0.43834  0.37036  1
 H  H8  1  0.93834  0.29346  0.12036  1
 O  O1  1  0.82541  0.93023  0.28379  1
 O  O2  1  0.17459  0.06977  0.78379  1
 O  O3  1  0.93023  0.82541  0.71621  1
 O  O4  1  0.43023  0.67459  0.03379  1
 O  O5  1  0.56977  0.32541  0.53379  1
 O  O6  1  0.67459  0.43023  0.96621  1
 O  O7  1  0.32541  0.56977  0.46621  1
 O  O8  1  0.06977  0.17459  0.21621  1
