CIF file written using JARVIS-Tools package.
data_PrP12Ru4
_symmetry_space_group_name_H-M  'Im-3'
_cell_length_a       8.14501
_cell_length_b       8.14501
_cell_length_c       8.14501
_cell_angle_alpha    90
_cell_angle_beta     90
_cell_angle_gamma    90

_symmetry_Int_Tables_number  204
_chemical_formula_structural  PrP12Ru4
_chemical_formula_sum  Pr2P24Ru8
_cell_volume  540.3498570238756
_cell_formula_units_Z  2
loop_
  _symmetry_equiv_pos_site_id
 _symmetry_equiv_pos_as_xyz
 1  'x, y, z'
loop_
 _atom_site_type_symbol
 _atom_site_label
 _atom_site_symmetry_multiplicity
 _atom_site_fract_x
 _atom_site_fract_y
 _atom_site_fract_z
 _atom_site_fract_occupancy
 P  P1  1  0.50000  0.85724  0.35623  1
 P  P2  1  0.14276  0.64377  0.50000  1
 P  P3  1  0.50000  0.14276  0.35623  1
 P  P4  1  0.35623  0.50000  0.14276  1
 P  P5  1  0.85724  0.35623  0.50000  1
 P  P6  1  0.14378  0.00000  0.35724  1
 P  P7  1  0.85724  0.64377  0.50000  1
 P  P8  1  0.50000  0.14276  0.64377  1
 P  P9  1  0.00000  0.35724  0.14378  1
 P  P10  1  0.14378  0.00000  0.64276  1
 P  P11  1  0.35724  0.14378  0.00000  1
 P  P12  1  0.64276  0.85622  0.00000  1
 P  P13  1  0.64276  0.14378  0.00000  1
 P  P14  1  0.85622  0.00000  0.35724  1
 P  P15  1  0.85622  0.00000  0.64276  1
 P  P16  1  0.35724  0.85622  0.00000  1
 P  P17  1  0.00000  0.64276  0.85622  1
 P  P18  1  0.00000  0.35724  0.85622  1
 P  P19  1  0.00000  0.64276  0.14378  1
 P  P20  1  0.50000  0.85724  0.64377  1
 P  P21  1  0.64377  0.50000  0.85724  1
 P  P22  1  0.35623  0.50000  0.85724  1
 P  P23  1  0.64377  0.50000  0.14276  1
 P  P24  1  0.14276  0.35623  0.50000  1
 Pr  Pr1  1  0.50000  0.50000  0.50000  1
 Pr  Pr2  1  0.00000  0.00000  0.00000  1
 Ru  Ru1  1  0.75000  0.75000  0.25000  1
 Ru  Ru2  1  0.25000  0.75000  0.25000  1
 Ru  Ru3  1  0.75000  0.25000  0.25000  1
 Ru  Ru4  1  0.25000  0.25000  0.75000  1
 Ru  Ru5  1  0.75000  0.75000  0.75000  1
 Ru  Ru6  1  0.75000  0.25000  0.75000  1
 Ru  Ru7  1  0.25000  0.75000  0.75000  1
 Ru  Ru8  1  0.25000  0.25000  0.25000  1
