CIF file written using JARVIS-Tools package.
data_ErGe2Ru2
_symmetry_space_group_name_H-M  'I4/mmm'
_cell_length_a       4.25424
_cell_length_b       4.25424
_cell_length_c       5.7495
_cell_angle_alpha    111.714
_cell_angle_beta     111.713
_cell_angle_gamma    90

_symmetry_Int_Tables_number  139
_chemical_formula_structural  ErGe2Ru2
_chemical_formula_sum  ErGe2Ru2
_cell_volume  88.67841228747949
_cell_formula_units_Z  1
loop_
  _symmetry_equiv_pos_site_id
 _symmetry_equiv_pos_as_xyz
 1  'x, y, z'
loop_
 _atom_site_type_symbol
 _atom_site_label
 _atom_site_symmetry_multiplicity
 _atom_site_fract_x
 _atom_site_fract_y
 _atom_site_fract_z
 _atom_site_fract_occupancy
 Er  Er1  1  0.00000  0.00000  0.00000  1
 Ge  Ge1  1  0.37101  0.37101  0.74203  1
 Ge  Ge2  1  0.62899  0.62899  0.25797  1
 Ru  Ru1  1  0.75000  0.25000  0.50000  1
 Ru  Ru2  1  0.25000  0.75000  0.50000  1
