CIF file written using JARVIS-Tools package.
data_AgTe4Au
_symmetry_space_group_name_H-M  'P2/c'
_cell_length_a       9.01459
_cell_length_b       4.50206
_cell_length_c       10.3074
_cell_angle_alpha    90
_cell_angle_beta     124.281
_cell_angle_gamma    90

_symmetry_Int_Tables_number  13
_chemical_formula_structural  AgTe4Au
_chemical_formula_sum  Ag2Te8Au2
_cell_volume  345.64800778833825
_cell_formula_units_Z  2
loop_
  _symmetry_equiv_pos_site_id
 _symmetry_equiv_pos_as_xyz
 1  'x, y, z'
loop_
 _atom_site_type_symbol
 _atom_site_label
 _atom_site_symmetry_multiplicity
 _atom_site_fract_x
 _atom_site_fract_y
 _atom_site_fract_z
 _atom_site_fract_occupancy
 Ag  Ag1  1  0.50000  0.48883  0.75000  1
 Ag  Ag2  1  0.50000  0.51117  0.25000  1
 Au  Au1  1  0.00000  0.00000  0.50000  1
 Au  Au2  1  0.00000  0.00000  0.00000  1
 Te  Te1  1  0.80867  0.41251  0.54683  1
 Te  Te2  1  0.19133  0.41251  0.95317  1
 Te  Te3  1  0.29952  0.97191  0.29700  1
 Te  Te4  1  0.70048  0.97191  0.20300  1
 Te  Te5  1  0.70048  0.02809  0.70300  1
 Te  Te6  1  0.29952  0.02809  0.79700  1
 Te  Te7  1  0.80867  0.58749  0.04683  1
 Te  Te8  1  0.19133  0.58749  0.45317  1
