CIF file written using JARVIS-Tools package.
data_NaMgF3
_symmetry_space_group_name_H-M  'Pnma'
_cell_length_a       5.36713
_cell_length_b       5.52787
_cell_length_c       7.69116
_cell_angle_alpha    90
_cell_angle_beta     90
_cell_angle_gamma    90

_symmetry_Int_Tables_number  62
_chemical_formula_structural  NaMgF3
_chemical_formula_sum  Na4Mg4F2
_cell_volume  228.18759345206894
_cell_formula_units_Z  4
loop_
  _symmetry_equiv_pos_site_id
 _symmetry_equiv_pos_as_xyz
 1  'x, y, z'
loop_
 _atom_site_type_symbol
 _atom_site_label
 _atom_site_symmetry_multiplicity
 _atom_site_fract_x
 _atom_site_fract_y
 _atom_site_fract_z
 _atom_site_fract_occupancy
 F  F1  1  0.09504  0.46887  0.25000  1
 F  F2  1  0.70062  0.29634  0.45034  1
 F  F3  1  0.40496  0.96887  0.25000  1
 F  F4  1  0.79938  0.79634  0.04966  1
 F  F5  1  0.29938  0.70366  0.95034  1
 F  F6  1  0.20062  0.20366  0.54966  1
 F  F7  1  0.79938  0.79634  0.45034  1
 F  F8  1  0.20062  0.20366  0.95034  1
 F  F9  1  0.70062  0.29634  0.04966  1
 F  F10  1  0.90496  0.53113  0.75000  1
 F  F11  1  0.59504  0.03113  0.75000  1
 F  F12  1  0.29938  0.70366  0.54966  1
 Mg  Mg1  1  0.00000  0.50000  0.00000  1
 Mg  Mg2  1  0.50000  0.00000  0.00000  1
 Mg  Mg3  1  0.50000  0.00000  0.50000  1
 Mg  Mg4  1  0.00000  0.50000  0.50000  1
 Na  Na1  1  0.98700  0.05052  0.25000  1
 Na  Na2  1  0.48700  0.44948  0.75000  1
 Na  Na3  1  0.51300  0.55052  0.25000  1
 Na  Na4  1  0.01300  0.94948  0.75000  1
