CIF file written using JARVIS-Tools package.
data_MoWSe2S2
_symmetry_space_group_name_H-M  'P3m1'
_cell_length_a       3.25838
_cell_length_b       3.25839
_cell_length_c       25.723
_cell_angle_alpha    89.9986
_cell_angle_beta     90.0003
_cell_angle_gamma    120

_symmetry_Int_Tables_number  156
_chemical_formula_structural  MoWSe2S2
_chemical_formula_sum  Mo2W2Se4S4
_cell_volume  236.5144494363465
_cell_formula_units_Z  2
loop_
  _symmetry_equiv_pos_site_id
 _symmetry_equiv_pos_as_xyz
 1  'x, y, z'
loop_
 _atom_site_type_symbol
 _atom_site_label
 _atom_site_symmetry_multiplicity
 _atom_site_fract_x
 _atom_site_fract_y
 _atom_site_fract_z
 _atom_site_fract_occupancy
 Mo  Mo1  1  0.33237  0.66580  0.99627  1
 Mo  Mo2  1  0.33388  0.66712  0.50510  1
 S  S1  1  0.33384  0.66693  0.80645  1
 S  S2  1  0.66721  0.33380  0.44499  1
 S  S3  1  0.66721  0.33377  0.56518  1
 S  S4  1  0.33389  0.66701  0.68567  1
 Se  Se1  1  0.33322  0.66677  0.32191  1
 Se  Se2  1  0.66572  0.33249  0.93027  1
 Se  Se3  1  0.66569  0.33245  0.06228  1
 Se  Se4  1  0.33322  0.66678  0.18907  1
 W  W1  1  0.66655  0.33344  0.25550  1
 W  W2  1  0.66720  0.33364  0.74605  1
