CIF file written using JARVIS-Tools package.
data_BeC2
_symmetry_space_group_name_H-M  'P4_2/mnm'
_cell_length_a       3.36895
_cell_length_b       3.36895
_cell_length_c       5.1415
_cell_angle_alpha    90
_cell_angle_beta     90
_cell_angle_gamma    90

_symmetry_Int_Tables_number  136
_chemical_formula_structural  BeC2
_chemical_formula_sum  Be2C4
_cell_volume  58.35526794080512
_cell_formula_units_Z  2
loop_
  _symmetry_equiv_pos_site_id
 _symmetry_equiv_pos_as_xyz
 1  'x, y, z'
loop_
 _atom_site_type_symbol
 _atom_site_label
 _atom_site_symmetry_multiplicity
 _atom_site_fract_x
 _atom_site_fract_y
 _atom_site_fract_z
 _atom_site_fract_occupancy
 Be  Be1  1  0.50000  0.50000  0.00000  1
 Be  Be2  1  0.00000  0.00000  0.50000  1
 C  C1  1  0.86869  0.86869  0.00000  1
 C  C2  1  0.63131  0.36869  0.50000  1
 C  C3  1  0.13131  0.13131  0.00000  1
 C  C4  1  0.36869  0.63131  0.50000  1
