CIF file written using JARVIS-Tools package.
data_MoW3Se4S4
_symmetry_space_group_name_H-M  'P3m1'
_cell_length_a       3.26359
_cell_length_b       3.26361
_cell_length_c       36.5988
_cell_angle_alpha    90.001
_cell_angle_beta     90
_cell_angle_gamma    120

_symmetry_Int_Tables_number  156
_chemical_formula_structural  MoW3Se4S4
_chemical_formula_sum  MoW3Se4S4
_cell_volume  337.59283489314123
_cell_formula_units_Z  1
loop_
  _symmetry_equiv_pos_site_id
 _symmetry_equiv_pos_as_xyz
 1  'x, y, z'
loop_
 _atom_site_type_symbol
 _atom_site_label
 _atom_site_symmetry_multiplicity
 _atom_site_fract_x
 _atom_site_fract_y
 _atom_site_fract_z
 _atom_site_fract_occupancy
 Mo  Mo1  1  0.33330  0.66661  0.09391  1
 S  S1  1  0.33336  0.66672  0.32431  1
 S  S2  1  0.33336  0.66671  0.69975  1
 S  S3  1  0.33336  0.66671  0.23928  1
 S  S4  1  0.33335  0.66671  0.61504  1
 Se  Se1  1  0.66664  0.33328  0.04784  1
 Se  Se2  1  0.66664  0.33329  0.42300  1
 Se  Se3  1  0.66665  0.33329  0.14029  1
 Se  Se4  1  0.66664  0.33329  0.51630  1
 W  W1  1  0.33331  0.66663  0.46970  1
 W  W2  1  0.66669  0.33338  0.28180  1
 W  W3  1  0.66669  0.33338  0.65753  1
