CIF file written using JARVIS-Tools package.
data_MgSn4O8
_symmetry_space_group_name_H-M  'P1'
_cell_length_a       3.24423
_cell_length_b       7.69188
_cell_length_c       8.64328
_cell_angle_alpha    65.164
_cell_angle_beta     79.2457
_cell_angle_gamma    77.8465

_symmetry_Int_Tables_number  1
_chemical_formula_structural  MgSn4O8
_chemical_formula_sum  MgSn4O8
_cell_volume  190.1759357027751
_cell_formula_units_Z  1
loop_
  _symmetry_equiv_pos_site_id
 _symmetry_equiv_pos_as_xyz
 1  'x, y, z'
loop_
 _atom_site_type_symbol
 _atom_site_label
 _atom_site_symmetry_multiplicity
 _atom_site_fract_x
 _atom_site_fract_y
 _atom_site_fract_z
 _atom_site_fract_occupancy
 Mg  Mg1  1  0.66232  0.89306  0.79169  1
 O  O1  1  0.10184  0.38308  0.42540  1
 O  O2  1  0.51984  0.72783  0.24398  1
 O  O3  1  0.55332  0.19788  0.70890  1
 O  O4  1  0.88580  0.65110  0.59021  1
 O  O5  1  0.84002  0.00883  0.32349  1
 O  O6  1  0.15290  0.77984  0.92428  1
 O  O7  1  0.22030  -0.00988  0.58345  1
 O  O8  1  0.71499  0.41699  0.16355  1
 Sn  Sn1  1  0.37757  0.81708  0.44024  1
 Sn  Sn2  1  0.94185  0.33991  0.79036  1
 Sn  Sn3  1  0.12479  0.59437  0.16691  1
 Sn  Sn4  1  0.68206  0.20927  0.43875  1
