CIF file written using JARVIS-Tools package.
data_Ta9Ni2S6
_symmetry_space_group_name_H-M  'P-62m'
_cell_length_a       10.1777
_cell_length_b       10.1777
_cell_length_c       3.40566
_cell_angle_alpha    90
_cell_angle_beta     90
_cell_angle_gamma    120

_symmetry_Int_Tables_number  189
_chemical_formula_structural  Ta9Ni2S6
_chemical_formula_sum  Ta9Ni2S6
_cell_volume  305.51196552503694
_cell_formula_units_Z  1
loop_
  _symmetry_equiv_pos_site_id
 _symmetry_equiv_pos_as_xyz
 1  'x, y, z'
loop_
 _atom_site_type_symbol
 _atom_site_label
 _atom_site_symmetry_multiplicity
 _atom_site_fract_x
 _atom_site_fract_y
 _atom_site_fract_z
 _atom_site_fract_occupancy
 Ni  Ni1  1  0.33333  0.66667  0.00000  1
 Ni  Ni2  1  0.66667  0.33333  0.00000  1
 S  S1  1  0.26956  -0.00000  0.50000  1
 S  S2  1  0.70503  0.00000  0.00000  1
 S  S3  1  0.29497  0.29497  0.00000  1
 S  S4  1  0.00000  0.70503  0.00000  1
 S  S5  1  0.73044  0.73044  0.50000  1
 S  S6  1  -0.00000  0.26956  0.50000  1
 Ta  Ta1  1  0.73588  0.19760  0.50000  1
 Ta  Ta2  1  0.46172  0.26412  0.50000  1
 Ta  Ta3  1  0.26412  0.46172  0.50000  1
 Ta  Ta4  1  0.45371  -0.00000  0.00000  1
 Ta  Ta5  1  0.19760  0.73588  0.50000  1
 Ta  Ta6  1  -0.00000  0.45371  0.00000  1
 Ta  Ta7  1  0.54629  0.54629  0.00000  1
 Ta  Ta8  1  0.80240  0.53828  0.50000  1
 Ta  Ta9  1  0.53828  0.80240  0.50000  1
