CIF file written using JARVIS-Tools package.
data_Li2Si2O5
_symmetry_space_group_name_H-M  'Ccc2'
_cell_length_a       4.81744
_cell_length_b       5.82313
_cell_length_c       7.91973
_cell_angle_alpha    111.57
_cell_angle_beta     90
_cell_angle_gamma    90

_symmetry_Int_Tables_number  37
_chemical_formula_structural  Li2Si2O5
_chemical_formula_sum  Li4Si4O0
_cell_volume  206.6101298266349
_cell_formula_units_Z  2
loop_
  _symmetry_equiv_pos_site_id
 _symmetry_equiv_pos_as_xyz
 1  'x, y, z'
loop_
 _atom_site_type_symbol
 _atom_site_label
 _atom_site_symmetry_multiplicity
 _atom_site_fract_x
 _atom_site_fract_y
 _atom_site_fract_z
 _atom_site_fract_occupancy
 Li  Li1  1  0.59682  0.70537  0.11392  1
 Li  Li2  1  0.09682  0.59144  0.88608  1
 Li  Li3  1  0.09682  0.40218  0.11392  1
 Li  Li4  1  0.59682  0.28826  0.88608  1
 O  O1  1  0.49662  0.39975  0.14147  1
 O  O2  1  -0.00338  0.25828  0.85853  1
 O  O3  1  -0.00338  0.73534  0.14147  1
 O  O4  1  0.93127  0.22983  0.27362  1
 O  O5  1  0.43127  0.95621  0.72638  1
 O  O6  1  0.43127  0.03741  0.27362  1
 O  O7  1  0.53482  0.49681  0.50000  1
 O  O8  1  0.49662  0.59387  0.85853  1
 O  O9  1  0.93127  0.76379  0.72638  1
 O  O10  1  0.03482  0.99681  0.50000  1
 Si  Si1  1  0.59438  0.69287  0.70503  1
 Si  Si2  1  0.59438  0.30075  0.29497  1
 Si  Si3  1  0.09438  0.98784  0.29497  1
 Si  Si4  1  0.09438  0.00578  0.70503  1
