CIF file written using JARVIS-Tools package.
data_PbSO3
_symmetry_space_group_name_H-M  'P2_1/m'
_cell_length_a       4.51817
_cell_length_b       5.35999
_cell_length_c       6.37716
_cell_angle_alpha    90
_cell_angle_beta     105.981
_cell_angle_gamma    90

_symmetry_Int_Tables_number  11
_chemical_formula_structural  PbSO3
_chemical_formula_sum  Pb2S2O6
_cell_volume  148.46940216261686
_cell_formula_units_Z  2
loop_
  _symmetry_equiv_pos_site_id
 _symmetry_equiv_pos_as_xyz
 1  'x, y, z'
loop_
 _atom_site_type_symbol
 _atom_site_label
 _atom_site_symmetry_multiplicity
 _atom_site_fract_x
 _atom_site_fract_y
 _atom_site_fract_z
 _atom_site_fract_occupancy
 O  O1  1  0.80434  0.02382  0.67500  1
 O  O2  1  0.19566  0.52382  0.32500  1
 O  O3  1  0.19566  0.97618  0.32500  1
 O  O4  1  0.80434  0.47618  0.67500  1
 O  O5  1  0.26749  0.25000  0.86740  1
 O  O6  1  0.73251  0.75000  0.13260  1
 Pb  Pb1  1  0.64776  0.25000  0.27972  1
 Pb  Pb2  1  0.35224  0.75000  0.72028  1
 S  S1  1  0.08464  0.75000  0.17231  1
 S  S2  1  0.91536  0.25000  0.82769  1
