CIF file written using JARVIS-Tools package.
data_CaAgSb
_symmetry_space_group_name_H-M  'Pnma'
_cell_length_a       4.58859
_cell_length_b       7.6877
_cell_length_c       8.49374
_cell_angle_alpha    90
_cell_angle_beta     90
_cell_angle_gamma    90

_symmetry_Int_Tables_number  62
_chemical_formula_structural  CaAgSb
_chemical_formula_sum  Ca4Ag4Sb4
_cell_volume  299.6232829851999
_cell_formula_units_Z  4
loop_
  _symmetry_equiv_pos_site_id
 _symmetry_equiv_pos_as_xyz
 1  'x, y, z'
loop_
 _atom_site_type_symbol
 _atom_site_label
 _atom_site_symmetry_multiplicity
 _atom_site_fract_x
 _atom_site_fract_y
 _atom_site_fract_z
 _atom_site_fract_occupancy
 Ag  Ag1  1  0.75000  0.85978  0.06421  1
 Ag  Ag2  1  0.75000  0.35978  0.43579  1
 Ag  Ag3  1  0.25000  0.14022  0.93579  1
 Ag  Ag4  1  0.25000  0.64022  0.56421  1
 Ca  Ca1  1  0.75000  0.47690  0.80534  1
 Ca  Ca2  1  0.25000  0.52310  0.19466  1
 Ca  Ca3  1  0.25000  0.02310  0.30534  1
 Ca  Ca4  1  0.75000  0.97690  0.69466  1
 Sb  Sb1  1  0.75000  0.74570  0.38532  1
 Sb  Sb2  1  0.25000  0.25430  0.61468  1
 Sb  Sb3  1  0.75000  0.24570  0.11468  1
 Sb  Sb4  1  0.25000  0.75430  0.88532  1
