CIF file written using JARVIS-Tools package.
data_PrSb12Os4
_symmetry_space_group_name_H-M  'Im-3'
_cell_length_a       8.18322
_cell_length_b       8.18322
_cell_length_c       8.18321
_cell_angle_alpha    109.471
_cell_angle_beta     109.471
_cell_angle_gamma    109.471

_symmetry_Int_Tables_number  204
_chemical_formula_structural  PrSb12Os4
_chemical_formula_sum  PrSb2Os4
_cell_volume  421.8419311091009
_cell_formula_units_Z  1
loop_
  _symmetry_equiv_pos_site_id
 _symmetry_equiv_pos_as_xyz
 1  'x, y, z'
loop_
 _atom_site_type_symbol
 _atom_site_label
 _atom_site_symmetry_multiplicity
 _atom_site_fract_x
 _atom_site_fract_y
 _atom_site_fract_z
 _atom_site_fract_occupancy
 Os  Os1  1  0.50000  0.00000  -0.00000  1
 Os  Os2  1  0.00000  0.00000  0.50000  1
 Os  Os3  1  0.50000  0.50000  0.50000  1
 Os  Os4  1  -0.00000  0.50000  0.00000  1
 Pr  Pr1  1  0.00000  0.00000  0.00000  1
 Sb  Sb1  1  0.33881  0.18233  0.84351  1
 Sb  Sb2  1  0.84351  0.66119  0.50470  1
 Sb  Sb3  1  0.49530  0.15649  0.33881  1
 Sb  Sb4  1  0.84351  0.33881  0.18233  1
 Sb  Sb5  1  0.15649  0.33881  0.49530  1
 Sb  Sb6  1  0.81767  0.15649  0.66119  1
 Sb  Sb7  1  0.18233  0.84351  0.33881  1
 Sb  Sb8  1  0.15649  0.66119  0.81767  1
 Sb  Sb9  1  0.66119  0.50470  0.84351  1
 Sb  Sb10  1  0.50470  0.84351  0.66119  1
 Sb  Sb11  1  0.66119  0.81767  0.15649  1
 Sb  Sb12  1  0.33881  0.49530  0.15649  1
