CIF file written using JARVIS-Tools package.
data_Nb4CrS8
_symmetry_space_group_name_H-M  'P6_3/mmc'
_cell_length_a       6.70319
_cell_length_b       6.70319
_cell_length_c       12.0052
_cell_angle_alpha    90
_cell_angle_beta     90
_cell_angle_gamma    120

_symmetry_Int_Tables_number  194
_chemical_formula_structural  Nb4CrS8
_chemical_formula_sum  Nb8Cr2S6
_cell_volume  467.15817085526874
_cell_formula_units_Z  2
loop_
  _symmetry_equiv_pos_site_id
 _symmetry_equiv_pos_as_xyz
 1  'x, y, z'
loop_
 _atom_site_type_symbol
 _atom_site_label
 _atom_site_symmetry_multiplicity
 _atom_site_fract_x
 _atom_site_fract_y
 _atom_site_fract_z
 _atom_site_fract_occupancy
 Cr  Cr1  1  0.00000  0.00000  0.00000  1
 Cr  Cr2  1  0.00000  0.00000  0.50000  1
 Nb  Nb1  1  0.00000  0.00000  0.25000  1
 Nb  Nb2  1  0.00000  0.00000  0.75000  1
 Nb  Nb3  1  0.49355  0.98710  0.25000  1
 Nb  Nb4  1  0.50645  0.01290  0.75000  1
 Nb  Nb5  1  0.98710  0.49355  0.75000  1
 Nb  Nb6  1  0.01290  0.50645  0.25000  1
 Nb  Nb7  1  0.49355  0.50645  0.25000  1
 Nb  Nb8  1  0.50645  0.49355  0.75000  1
 S  S1  1  0.16649  0.83351  0.61846  1
 S  S2  1  0.83351  0.16649  0.11846  1
 S  S3  1  0.83351  0.66702  0.11846  1
 S  S4  1  0.83351  0.66702  0.38154  1
 S  S5  1  0.66702  0.83351  0.61846  1
 S  S6  1  0.16649  0.33298  0.88154  1
 S  S7  1  0.33298  0.16649  0.11846  1
 S  S8  1  0.66667  0.33333  0.61500  1
 S  S9  1  0.33298  0.16649  0.38154  1
 S  S10  1  0.66702  0.83351  0.88154  1
 S  S11  1  0.33333  0.66667  0.11500  1
 S  S12  1  0.16649  0.33298  0.61846  1
 S  S13  1  0.66667  0.33333  0.88500  1
 S  S14  1  0.33333  0.66667  0.38500  1
 S  S15  1  0.83351  0.16649  0.38154  1
 S  S16  1  0.16649  0.83351  0.88154  1
