CIF file written using JARVIS-Tools package.
data_HfSb2
_symmetry_space_group_name_H-M  'Pnnm'
_cell_length_a       3.90864
_cell_length_b       9.9769
_cell_length_c       15.1524
_cell_angle_alpha    90
_cell_angle_beta     90
_cell_angle_gamma    90

_symmetry_Int_Tables_number  58
_chemical_formula_structural  HfSb2
_chemical_formula_sum  Hf8Sb6
_cell_volume  590.8844862790829
_cell_formula_units_Z  8
loop_
  _symmetry_equiv_pos_site_id
 _symmetry_equiv_pos_as_xyz
 1  'x, y, z'
loop_
 _atom_site_type_symbol
 _atom_site_label
 _atom_site_symmetry_multiplicity
 _atom_site_fract_x
 _atom_site_fract_y
 _atom_site_fract_z
 _atom_site_fract_occupancy
 Hf  Hf1  1  0.50000  0.52202  0.25230  1
 Hf  Hf2  1  0.50000  0.47798  0.74770  1
 Hf  Hf3  1  0.00000  0.02202  0.24770  1
 Hf  Hf4  1  0.00000  0.97798  0.75230  1
 Hf  Hf5  1  0.00000  0.83358  0.49379  1
 Hf  Hf6  1  0.00000  0.16642  0.50621  1
 Hf  Hf7  1  0.50000  0.33358  0.00621  1
 Hf  Hf8  1  0.50000  0.66642  0.99379  1
 Sb  Sb1  1  0.00000  0.51322  0.10510  1
 Sb  Sb2  1  0.00000  0.48678  0.89490  1
 Sb  Sb3  1  0.50000  0.01322  0.39490  1
 Sb  Sb4  1  0.50000  0.15875  0.84547  1
 Sb  Sb5  1  0.00000  0.73308  0.30185  1
 Sb  Sb6  1  0.00000  0.26692  0.69815  1
 Sb  Sb7  1  0.50000  0.98678  0.60510  1
 Sb  Sb8  1  0.50000  0.38045  0.55686  1
 Sb  Sb9  1  0.00000  0.88045  0.94314  1
 Sb  Sb10  1  0.00000  0.11955  0.05686  1
 Sb  Sb11  1  0.50000  0.23308  0.19815  1
 Sb  Sb12  1  0.50000  0.61955  0.44314  1
 Sb  Sb13  1  0.00000  0.65875  0.65453  1
 Sb  Sb14  1  0.00000  0.34125  0.34547  1
 Sb  Sb15  1  0.50000  0.76692  0.80185  1
 Sb  Sb16  1  0.50000  0.84125  0.15453  1
