CIF file written using JARVIS-Tools package.
data_Te2MoWS2
_symmetry_space_group_name_H-M  'P-3m1'
_cell_length_a       3.37355
_cell_length_b       3.37351
_cell_length_c       34.4391
_cell_angle_alpha    90.0007
_cell_angle_beta     90.0001
_cell_angle_gamma    120.001

_symmetry_Int_Tables_number  164
_chemical_formula_structural  Te2MoWS2
_chemical_formula_sum  Te4Mo2W2S4
_cell_volume  339.4300460660355
_cell_formula_units_Z  2
loop_
  _symmetry_equiv_pos_site_id
 _symmetry_equiv_pos_as_xyz
 1  'x, y, z'
loop_
 _atom_site_type_symbol
 _atom_site_label
 _atom_site_symmetry_multiplicity
 _atom_site_fract_x
 _atom_site_fract_y
 _atom_site_fract_z
 _atom_site_fract_occupancy
 Mo  Mo1  1  0.33332  0.66664  0.46417  1
 Mo  Mo2  1  0.66668  0.33336  0.28729  1
 S  S1  1  0.33332  0.66665  0.33114  1
 S  S2  1  0.66668  0.33335  0.42032  1
 S  S3  1  0.66664  0.33327  0.50804  1
 S  S4  1  0.33336  0.66673  0.24342  1
 Te  Te1  1  0.33338  0.66675  0.71308  1
 Te  Te2  1  0.66662  0.33325  0.03838  1
 Te  Te3  1  0.66669  0.33336  0.14870  1
 Te  Te4  1  0.33331  0.66664  0.60276  1
 W  W1  1  0.33332  0.66664  0.09345  1
 W  W2  1  0.66668  0.33336  0.65800  1
