CIF file written using JARVIS-Tools package.
data_NbSiRh
_symmetry_space_group_name_H-M  'Pnma'
_cell_length_a       3.78417
_cell_length_b       6.46312
_cell_length_c       7.36724
_cell_angle_alpha    90
_cell_angle_beta     90
_cell_angle_gamma    90

_symmetry_Int_Tables_number  62
_chemical_formula_structural  NbSiRh
_chemical_formula_sum  Nb4Si4Rh4
_cell_volume  180.18449337522011
_cell_formula_units_Z  4
loop_
  _symmetry_equiv_pos_site_id
 _symmetry_equiv_pos_as_xyz
 1  'x, y, z'
loop_
 _atom_site_type_symbol
 _atom_site_label
 _atom_site_symmetry_multiplicity
 _atom_site_fract_x
 _atom_site_fract_y
 _atom_site_fract_z
 _atom_site_fract_occupancy
 Nb  Nb1  1  0.75000  0.47459  0.32662  1
 Nb  Nb2  1  0.25000  0.02541  0.82662  1
 Nb  Nb3  1  0.75000  0.97459  0.17338  1
 Nb  Nb4  1  0.25000  0.52541  0.67338  1
 Rh  Rh1  1  0.25000  0.64527  0.06287  1
 Rh  Rh2  1  0.25000  0.14527  0.43713  1
 Rh  Rh3  1  0.75000  0.85473  0.56287  1
 Rh  Rh4  1  0.75000  0.35473  0.93713  1
 Si  Si1  1  0.25000  0.26894  0.12416  1
 Si  Si2  1  0.25000  0.76894  0.37584  1
 Si  Si3  1  0.75000  0.73106  0.87584  1
 Si  Si4  1  0.75000  0.23106  0.62416  1
