CIF file written using JARVIS-Tools package.
data_Zn2SnSbO6
_symmetry_space_group_name_H-M  'P2_1/m'
_cell_length_a       5.41483
_cell_length_b       8.04313
_cell_length_c       5.41785
_cell_angle_alpha    90
_cell_angle_beta     89.9145
_cell_angle_gamma    90

_symmetry_Int_Tables_number  11
_chemical_formula_structural  Zn2SnSbO6
_chemical_formula_sum  Zn4Sn2Sb2O2
_cell_volume  235.958896769623
_cell_formula_units_Z  2
loop_
  _symmetry_equiv_pos_site_id
 _symmetry_equiv_pos_as_xyz
 1  'x, y, z'
loop_
 _atom_site_type_symbol
 _atom_site_label
 _atom_site_symmetry_multiplicity
 _atom_site_fract_x
 _atom_site_fract_y
 _atom_site_fract_z
 _atom_site_fract_occupancy
 O  O1  1  0.89977  0.75000  0.62805  1
 O  O2  1  0.67075  0.42736  0.66211  1
 O  O3  1  0.40361  0.75000  0.87898  1
 O  O4  1  0.32925  0.92736  0.33789  1
 O  O5  1  0.83231  0.57209  0.16816  1
 O  O6  1  0.16769  0.07209  0.83184  1
 O  O7  1  0.83231  0.92791  0.16816  1
 O  O8  1  0.59639  0.25000  0.12102  1
 O  O9  1  0.67075  0.07264  0.66211  1
 O  O10  1  0.10023  0.25000  0.37195  1
 O  O11  1  0.32925  0.57264  0.33789  1
 O  O12  1  0.16769  0.42791  0.83184  1
 Sb  Sb1  1  0.50000  0.00000  -0.00000  1
 Sb  Sb2  1  0.50000  0.50000  -0.00000  1
 Sn  Sn1  1  0.00000  0.00000  0.50000  1
 Sn  Sn2  1  0.00000  0.50000  0.50000  1
 Zn  Zn1  1  0.97722  0.25000  0.01142  1
 Zn  Zn2  1  0.02278  0.75000  0.98858  1
 Zn  Zn3  1  0.47157  0.25000  0.48891  1
 Zn  Zn4  1  0.52843  0.75000  0.51109  1
