CIF file written using JARVIS-Tools package.
data_TiAl2
_symmetry_space_group_name_H-M  'I4_1/amd'
_cell_length_a       3.97454
_cell_length_b       3.97454
_cell_length_c       12.4993
_cell_angle_alpha    99.1483
_cell_angle_beta     99.1483
_cell_angle_gamma    89.9999

_symmetry_Int_Tables_number  141
_chemical_formula_structural  TiAl2
_chemical_formula_sum  Ti4Al8
_cell_volume  192.3956590239847
_cell_formula_units_Z  4
loop_
  _symmetry_equiv_pos_site_id
 _symmetry_equiv_pos_as_xyz
 1  'x, y, z'
loop_
 _atom_site_type_symbol
 _atom_site_label
 _atom_site_symmetry_multiplicity
 _atom_site_fract_x
 _atom_site_fract_y
 _atom_site_fract_z
 _atom_site_fract_occupancy
 Al  Al1  1  0.78835  0.53835  0.07670  1
 Al  Al2  1  0.62509  0.37509  0.75018  1
 Al  Al3  1  0.12491  0.87491  0.74982  1
 Al  Al4  1  0.21165  0.46165  0.92330  1
 Al  Al5  1  0.03835  0.28835  0.57670  1
 Al  Al6  1  0.37491  0.62491  0.24982  1
 Al  Al7  1  0.87509  0.12509  0.25018  1
 Al  Al8  1  0.96165  0.71165  0.42330  1
 Ti  Ti1  1  0.54717  0.79717  0.59434  1
 Ti  Ti2  1  0.29717  0.04717  0.09434  1
 Ti  Ti3  1  0.70283  0.95283  0.90566  1
 Ti  Ti4  1  0.45283  0.20283  0.40566  1
