CIF file written using JARVIS-Tools package.
data_DyCrO4
_symmetry_space_group_name_H-M  'I4_1/amd'
_cell_length_a       5.94491
_cell_length_b       5.94491
_cell_length_c       5.94491
_cell_angle_alpha    106.189
_cell_angle_beta     106.189
_cell_angle_gamma    116.257

_symmetry_Int_Tables_number  141
_chemical_formula_structural  DyCrO4
_chemical_formula_sum  Dy2Cr2O8
_cell_volume  160.0183400562589
_cell_formula_units_Z  2
loop_
  _symmetry_equiv_pos_site_id
 _symmetry_equiv_pos_as_xyz
 1  'x, y, z'
loop_
 _atom_site_type_symbol
 _atom_site_label
 _atom_site_symmetry_multiplicity
 _atom_site_fract_x
 _atom_site_fract_y
 _atom_site_fract_z
 _atom_site_fract_occupancy
 Cr  Cr1  1  0.87500  0.12500  0.75000  1
 Cr  Cr2  1  0.12500  0.87500  0.25000  1
 Dy  Dy1  1  0.37500  0.62500  0.75000  1
 Dy  Dy2  1  0.62500  0.37500  0.25000  1
 O  O1  1  0.29970  0.23334  0.43364  1
 O  O2  1  0.86607  0.29970  0.56636  1
 O  O3  1  0.23334  0.29970  0.93363  1
 O  O4  1  0.29970  0.86607  0.06637  1
 O  O5  1  0.13393  0.70030  0.43364  1
 O  O6  1  0.70030  0.76666  0.56636  1
 O  O7  1  0.76666  0.70030  0.06637  1
 O  O8  1  0.70030  0.13393  0.93363  1
