CIF file written using JARVIS-Tools package.
data_Te2MoW3S6
_symmetry_space_group_name_H-M  'P3m1'
_cell_length_a       3.27607
_cell_length_b       3.27609
_cell_length_c       36.7753
_cell_angle_alpha    90
_cell_angle_beta     90
_cell_angle_gamma    120

_symmetry_Int_Tables_number  156
_chemical_formula_structural  Te2MoW3S6
_chemical_formula_sum  Te2MoW3S6
_cell_volume  341.8187899361449
_cell_formula_units_Z  1
loop_
  _symmetry_equiv_pos_site_id
 _symmetry_equiv_pos_as_xyz
 1  'x, y, z'
loop_
 _atom_site_type_symbol
 _atom_site_label
 _atom_site_symmetry_multiplicity
 _atom_site_fract_x
 _atom_site_fract_y
 _atom_site_fract_z
 _atom_site_fract_occupancy
 Mo  Mo1  1  0.66669  0.33337  0.28181  1
 S  S1  1  0.33336  0.66671  0.69928  1
 S  S2  1  0.66665  0.33330  0.05202  1
 S  S3  1  0.66664  0.33328  0.42773  1
 S  S4  1  0.66665  0.33330  0.13598  1
 S  S5  1  0.66664  0.33329  0.51193  1
 S  S6  1  0.33335  0.66671  0.61526  1
 Te  Te1  1  0.33335  0.66671  0.33438  1
 Te  Te2  1  0.33335  0.66671  0.22923  1
 W  W1  1  0.33331  0.66663  0.09402  1
 W  W2  1  0.33331  0.66661  0.46982  1
 W  W3  1  0.66669  0.33338  0.65728  1
