CIF file written using JARVIS-Tools package.
data_Cd2As3I
_symmetry_space_group_name_H-M  'C2/c'
_cell_length_a       6.47936
_cell_length_b       6.47936
_cell_length_c       8.09368
_cell_angle_alpha    97.1397
_cell_angle_beta     97.1397
_cell_angle_gamma    97.4609

_symmetry_Int_Tables_number  15
_chemical_formula_structural  Cd2As3I
_chemical_formula_sum  Cd4As6I2
_cell_volume  330.8781843355163
_cell_formula_units_Z  2
loop_
  _symmetry_equiv_pos_site_id
 _symmetry_equiv_pos_as_xyz
 1  'x, y, z'
loop_
 _atom_site_type_symbol
 _atom_site_label
 _atom_site_symmetry_multiplicity
 _atom_site_fract_x
 _atom_site_fract_y
 _atom_site_fract_z
 _atom_site_fract_occupancy
 As  As1  1  0.67885  0.58105  0.73860  1
 As  As2  1  0.58105  0.67885  0.23860  1
 As  As3  1  0.54517  0.96621  0.46188  1
 As  As4  1  0.96621  0.54517  0.96188  1
 As  As5  1  0.83253  0.93037  0.68517  1
 As  As6  1  0.93037  0.83253  0.18517  1
 Cd  Cd1  1  0.85864  0.14666  0.01006  1
 Cd  Cd2  1  0.36474  0.65280  0.91374  1
 Cd  Cd3  1  0.14666  0.85864  0.51006  1
 Cd  Cd4  1  0.65280  0.36474  0.41374  1
 I  I1  1  0.12911  0.38226  0.46185  1
 I  I2  1  0.38226  0.12911  0.96185  1
