CIF file written using JARVIS-Tools package.
data_NaO2
_symmetry_space_group_name_H-M  'Pa-3'
_cell_length_a       5.44625
_cell_length_b       5.44625
_cell_length_c       5.44625
_cell_angle_alpha    90
_cell_angle_beta     90
_cell_angle_gamma    90

_symmetry_Int_Tables_number  205
_chemical_formula_structural  NaO2
_chemical_formula_sum  Na4O8
_cell_volume  161.54459557397183
_cell_formula_units_Z  4
loop_
  _symmetry_equiv_pos_site_id
 _symmetry_equiv_pos_as_xyz
 1  'x, y, z'
loop_
 _atom_site_type_symbol
 _atom_site_label
 _atom_site_symmetry_multiplicity
 _atom_site_fract_x
 _atom_site_fract_y
 _atom_site_fract_z
 _atom_site_fract_occupancy
 Na  Na1  1  0.00000  0.50000  0.50000  1
 Na  Na2  1  0.50000  0.50000  0.00000  1
 Na  Na3  1  0.50000  0.00000  0.50000  1
 Na  Na4  1  0.00000  0.00000  0.00000  1
 O  O1  1  0.42813  0.07187  0.92813  1
 O  O2  1  0.07187  0.92813  0.42813  1
 O  O3  1  0.92813  0.42813  0.07187  1
 O  O4  1  0.57187  0.57187  0.57187  1
 O  O5  1  0.42813  0.42813  0.42813  1
 O  O6  1  0.07187  0.57187  0.92813  1
 O  O7  1  0.92813  0.07187  0.57187  1
 O  O8  1  0.57187  0.92813  0.07187  1
