CIF file written using JARVIS-Tools package.
data_ZrAs2
_symmetry_space_group_name_H-M  'Pnma'
_cell_length_a       3.7379
_cell_length_b       6.87362
_cell_length_c       9.13161
_cell_angle_alpha    90
_cell_angle_beta     90
_cell_angle_gamma    90

_symmetry_Int_Tables_number  62
_chemical_formula_structural  ZrAs2
_chemical_formula_sum  Zr4As8
_cell_volume  234.6173716231823
_cell_formula_units_Z  4
loop_
  _symmetry_equiv_pos_site_id
 _symmetry_equiv_pos_as_xyz
 1  'x, y, z'
loop_
 _atom_site_type_symbol
 _atom_site_label
 _atom_site_symmetry_multiplicity
 _atom_site_fract_x
 _atom_site_fract_y
 _atom_site_fract_z
 _atom_site_fract_occupancy
 As  As1  1  0.75000  0.11982  0.54268  1
 As  As2  1  0.25000  0.88018  0.45732  1
 As  As3  1  0.75000  0.61982  0.95732  1
 As  As4  1  0.25000  0.38018  0.04268  1
 As  As5  1  0.75000  0.08151  0.14934  1
 As  As6  1  0.25000  0.91849  0.85066  1
 As  As7  1  0.75000  0.58151  0.35066  1
 As  As8  1  0.25000  0.41849  0.64934  1
 Zr  Zr1  1  0.75000  0.22699  0.83894  1
 Zr  Zr2  1  0.25000  0.77301  0.16106  1
 Zr  Zr3  1  0.75000  0.72699  0.66106  1
 Zr  Zr4  1  0.25000  0.27301  0.33894  1
