CIF file written using JARVIS-Tools package.
data_Ca2CuSbO6
_symmetry_space_group_name_H-M  'P2_1/m'
_cell_length_a       5.74398
_cell_length_b       7.49093
_cell_length_c       6.00919
_cell_angle_alpha    90
_cell_angle_beta     104.864
_cell_angle_gamma    90

_symmetry_Int_Tables_number  11
_chemical_formula_structural  Ca2CuSbO6
_chemical_formula_sum  Ca4Cu2Sb2O2
_cell_volume  249.909613341839
_cell_formula_units_Z  2
loop_
  _symmetry_equiv_pos_site_id
 _symmetry_equiv_pos_as_xyz
 1  'x, y, z'
loop_
 _atom_site_type_symbol
 _atom_site_label
 _atom_site_symmetry_multiplicity
 _atom_site_fract_x
 _atom_site_fract_y
 _atom_site_fract_z
 _atom_site_fract_occupancy
 Ca  Ca1  1  0.46535  0.75000  0.41865  1
 Ca  Ca2  1  0.53465  0.25000  0.58135  1
 Ca  Ca3  1  0.93669  0.75000  0.95491  1
 Ca  Ca4  1  0.06331  0.25000  0.04509  1
 Cu  Cu1  1  0.50000  0.50000  -0.00000  1
 Cu  Cu2  1  0.50000  0.00000  -0.00000  1
 O  O1  1  0.65022  0.46102  0.31352  1
 O  O2  1  0.90257  0.75000  0.55750  1
 O  O3  1  0.34978  0.96102  0.68648  1
 O  O4  1  0.12700  0.55425  0.23355  1
 O  O5  1  0.87300  0.05425  0.76645  1
 O  O6  1  0.12700  0.94575  0.23355  1
 O  O7  1  0.57041  0.75000  0.05980  1
 O  O8  1  0.65022  0.03898  0.31352  1
 O  O9  1  0.87300  0.44575  0.76645  1
 O  O10  1  0.34978  0.53898  0.68648  1
 O  O11  1  0.09743  0.25000  0.44250  1
 O  O12  1  0.42959  0.25000  0.94020  1
 Sb  Sb1  1  -0.00000  0.00000  0.50000  1
 Sb  Sb2  1  -0.00000  0.50000  0.50000  1
