CIF file written using JARVIS-Tools package.
data_CaTa4O11
_symmetry_space_group_name_H-M  'P6_322'
_cell_length_a       6.26223
_cell_length_b       6.26223
_cell_length_c       12.384
_cell_angle_alpha    90
_cell_angle_beta     90
_cell_angle_gamma    120

_symmetry_Int_Tables_number  182
_chemical_formula_structural  CaTa4O11
_chemical_formula_sum  Ca2Ta8O22
_cell_volume  420.5812357368649
_cell_formula_units_Z  2
loop_
  _symmetry_equiv_pos_site_id
 _symmetry_equiv_pos_as_xyz
 1  'x, y, z'
loop_
 _atom_site_type_symbol
 _atom_site_label
 _atom_site_symmetry_multiplicity
 _atom_site_fract_x
 _atom_site_fract_y
 _atom_site_fract_z
 _atom_site_fract_occupancy
 Ca  Ca1  1  0.33333  0.66667  0.75000  1
 Ca  Ca2  1  0.66667  0.33333  0.25000  1
 O  O1  1  0.33333  0.66667  0.53409  1
 O  O2  1  0.66667  0.33333  0.03409  1
 O  O3  1  0.66667  0.33333  0.46591  1
 O  O4  1  0.33333  0.66667  0.96591  1
 O  O5  1  0.24667  -0.00000  0.50000  1
 O  O6  1  0.56759  0.94588  0.34395  1
 O  O7  1  0.00000  0.75333  0.00000  1
 O  O8  1  -0.00000  0.24667  0.50000  1
 O  O9  1  0.75333  0.75333  0.50000  1
 O  O10  1  0.24667  0.24667  0.00000  1
 O  O11  1  0.37829  0.94588  0.15605  1
 O  O12  1  0.94588  0.56759  0.65605  1
 O  O13  1  0.05412  0.43241  0.15605  1
 O  O14  1  0.56759  0.62171  0.15605  1
 O  O15  1  0.43241  0.05412  0.84395  1
 O  O16  1  0.62171  0.56759  0.84395  1
 O  O17  1  0.62171  0.05412  0.65605  1
 O  O18  1  0.94588  0.37829  0.84395  1
 O  O19  1  0.05412  0.62171  0.34395  1
 O  O20  1  0.43241  0.37829  0.65605  1
 O  O21  1  0.75333  0.00000  0.00000  1
 O  O22  1  0.37829  0.43241  0.34395  1
 Ta  Ta1  1  0.64095  0.64095  0.00000  1
 Ta  Ta2  1  0.66667  0.33333  0.75000  1
 Ta  Ta3  1  0.33333  0.66667  0.25000  1
 Ta  Ta4  1  0.64095  -0.00000  0.50000  1
 Ta  Ta5  1  0.35905  0.00000  0.00000  1
 Ta  Ta6  1  0.00000  0.35905  0.00000  1
 Ta  Ta7  1  -0.00000  0.64095  0.50000  1
 Ta  Ta8  1  0.35905  0.35905  0.50000  1
