CIF file written using JARVIS-Tools package.
data_NbW3Se8
_symmetry_space_group_name_H-M  'Pmm2'
_cell_length_a       3.36953
_cell_length_b       13.0872
_cell_length_c       5.83936
_cell_angle_alpha    90
_cell_angle_beta     90.0001
_cell_angle_gamma    90

_symmetry_Int_Tables_number  25
_chemical_formula_structural  NbW3Se8
_chemical_formula_sum  NbW3Se8
_cell_volume  257.5012799354251
_cell_formula_units_Z  1
loop_
  _symmetry_equiv_pos_site_id
 _symmetry_equiv_pos_as_xyz
 1  'x, y, z'
loop_
 _atom_site_type_symbol
 _atom_site_label
 _atom_site_symmetry_multiplicity
 _atom_site_fract_x
 _atom_site_fract_y
 _atom_site_fract_z
 _atom_site_fract_occupancy
 Nb  Nb1  1  0.99990  0.25000  0.32555  1
 Se  Se1  1  0.49990  0.38188  0.16265  1
 Se  Se2  1  0.50010  0.87732  0.83326  1
 Se  Se3  1  0.50010  0.62268  0.83326  1
 Se  Se4  1  0.49990  0.11812  0.16265  1
 Se  Se5  1  0.99990  0.37684  0.67098  1
 Se  Se6  1  0.00010  0.87727  0.33333  1
 Se  Se7  1  0.00010  0.62273  0.33333  1
 Se  Se8  1  0.99990  0.12316  0.67098  1
 W  W1  1  0.50010  0.75000  0.16652  1
 W  W2  1  0.49990  0.25000  0.84083  1
 W  W3  1  0.00010  0.75000  0.66668  1
