CIF file written using JARVIS-Tools package.
data_Te4Mo3S2
_symmetry_space_group_name_H-M  'Cmcm'
_cell_length_a       3.4452
_cell_length_b       13.957
_cell_length_c       9.05581
_cell_angle_alpha    90
_cell_angle_beta     100.967
_cell_angle_gamma    90

_symmetry_Int_Tables_number  63
_chemical_formula_structural  Te4Mo3S2
_chemical_formula_sum  Te8Mo6S4
_cell_volume  427.4921690609099
_cell_formula_units_Z  2
loop_
  _symmetry_equiv_pos_site_id
 _symmetry_equiv_pos_as_xyz
 1  'x, y, z'
loop_
 _atom_site_type_symbol
 _atom_site_label
 _atom_site_symmetry_multiplicity
 _atom_site_fract_x
 _atom_site_fract_y
 _atom_site_fract_z
 _atom_site_fract_occupancy
 Mo  Mo1  1  0.78514  0.75000  0.57025  1
 Mo  Mo2  1  0.21486  0.25000  0.42975  1
 Mo  Mo3  1  0.11119  0.75000  0.22239  1
 Mo  Mo4  1  0.54130  0.25000  0.08263  1
 Mo  Mo5  1  0.45870  0.75000  0.91737  1
 Mo  Mo6  1  0.88881  0.25000  0.77761  1
 S  S1  1  0.56335  0.85956  0.12671  1
 S  S2  1  0.43665  0.14044  0.87329  1
 S  S3  1  0.43665  0.35956  0.87329  1
 S  S4  1  0.56335  0.64044  0.12671  1
 Te  Te1  1  0.90031  0.88275  0.80059  1
 Te  Te2  1  0.77507  0.38084  0.55015  1
 Te  Te3  1  0.22493  0.88084  0.44985  1
 Te  Te4  1  0.22493  0.61916  0.44985  1
 Te  Te5  1  0.77507  0.11916  0.55015  1
 Te  Te6  1  0.09969  0.38275  0.19941  1
 Te  Te7  1  0.09969  0.11725  0.19941  1
 Te  Te8  1  0.90031  0.61725  0.80059  1
