CIF file written using JARVIS-Tools package.
data_Te4Mo3S2
_symmetry_space_group_name_H-M  'Cmcm'
_cell_length_a       5.95391
_cell_length_b       13.9513
_cell_length_c       5.96115
_cell_angle_alpha    90.0002
_cell_angle_beta     119.96
_cell_angle_gamma    90

_symmetry_Int_Tables_number  63
_chemical_formula_structural  Te4Mo3S2
_chemical_formula_sum  Te8Mo6S4
_cell_volume  428.99617025336414
_cell_formula_units_Z  2
loop_
  _symmetry_equiv_pos_site_id
 _symmetry_equiv_pos_as_xyz
 1  'x, y, z'
loop_
 _atom_site_type_symbol
 _atom_site_label
 _atom_site_symmetry_multiplicity
 _atom_site_fract_x
 _atom_site_fract_y
 _atom_site_fract_z
 _atom_site_fract_occupancy
 Mo  Mo1  1  0.31775  0.25000  0.31193  1
 Mo  Mo2  1  0.37142  0.75000  0.00000  1
 Mo  Mo3  1  0.00582  0.25000  0.68807  1
 Mo  Mo4  1  0.99418  0.75000  0.31193  1
 Mo  Mo5  1  0.62858  0.25000  -0.00000  1
 Mo  Mo6  1  0.68225  0.75000  0.68807  1
 S  S1  1  0.31715  0.13872  0.00000  1
 S  S2  1  0.68285  0.86127  -0.00000  1
 S  S3  1  0.68285  0.63873  -0.00000  1
 S  S4  1  0.31715  0.36128  0.00000  1
 Te  Te1  1  0.65138  0.11935  0.66824  1
 Te  Te2  1  0.34861  0.61935  0.33175  1
 Te  Te3  1  0.34861  0.88065  0.33175  1
 Te  Te4  1  0.01686  0.61935  0.66824  1
 Te  Te5  1  0.98315  0.11935  0.33176  1
 Te  Te6  1  0.98315  0.38065  0.33176  1
 Te  Te7  1  0.01686  0.88065  0.66824  1
 Te  Te8  1  0.65138  0.38065  0.66824  1
