CIF file written using JARVIS-Tools package.
data_K2Te2Pd
_symmetry_space_group_name_H-M  'Immm'
_cell_length_a       6.75527
_cell_length_b       6.75526
_cell_length_c       6.75527
_cell_angle_alpha    145.214
_cell_angle_beta     108.946
_cell_angle_gamma    81.6065

_symmetry_Int_Tables_number  71
_chemical_formula_structural  K2Te2Pd
_chemical_formula_sum  K2Te2Pd
_cell_volume  162.12894247648237
_cell_formula_units_Z  1
loop_
  _symmetry_equiv_pos_site_id
 _symmetry_equiv_pos_as_xyz
 1  'x, y, z'
loop_
 _atom_site_type_symbol
 _atom_site_label
 _atom_site_symmetry_multiplicity
 _atom_site_fract_x
 _atom_site_fract_y
 _atom_site_fract_z
 _atom_site_fract_occupancy
 K  K1  1  0.29656  0.79656  0.50000  1
 K  K2  1  0.70344  0.20344  0.50000  1
 Pd  Pd1  1  0.00000  0.00000  0.00000  1
 Te  Te1  1  0.77378  0.50000  0.27378  1
 Te  Te2  1  0.22622  0.50000  0.72622  1
