CIF file written using JARVIS-Tools package.
data_Zr2Ga3Cu
_symmetry_space_group_name_H-M  'Cm'
_cell_length_a       5.39601
_cell_length_b       5.39601
_cell_length_c       6.61679
_cell_angle_alpha    52.4764
_cell_angle_beta     52.4764
_cell_angle_gamma    44.97

_symmetry_Int_Tables_number  8
_chemical_formula_structural  Zr2Ga3Cu
_chemical_formula_sum  Zr2Ga3Cu
_cell_volume  102.38828269638472
_cell_formula_units_Z  1
loop_
  _symmetry_equiv_pos_site_id
 _symmetry_equiv_pos_as_xyz
 1  'x, y, z'
loop_
 _atom_site_type_symbol
 _atom_site_label
 _atom_site_symmetry_multiplicity
 _atom_site_fract_x
 _atom_site_fract_y
 _atom_site_fract_z
 _atom_site_fract_occupancy
 Cu  Cu1  1  0.16591  0.16591  0.39261  1
 Ga  Ga1  1  0.85185  0.85185  0.61031  1
 Ga  Ga2  1  0.82682  0.82682  0.20700  1
 Ga  Ga3  1  0.15907  0.15907  0.79654  1
 Zr  Zr1  1  0.54409  0.54409  0.19829  1
 Zr  Zr2  1  0.45227  0.45227  0.79526  1
