CIF file written using JARVIS-Tools package.
data_Na2PtO6
_symmetry_space_group_name_H-M  'C2/m'
_cell_length_a       5.93197
_cell_length_b       5.93198
_cell_length_c       3.75767
_cell_angle_alpha    79.6081
_cell_angle_beta     79.6082
_cell_angle_gamma    113.695

_symmetry_Int_Tables_number  12
_chemical_formula_structural  Na2PtO6
_chemical_formula_sum  Na2PtO6
_cell_volume  114.3034829852569
_cell_formula_units_Z  1
loop_
  _symmetry_equiv_pos_site_id
 _symmetry_equiv_pos_as_xyz
 1  'x, y, z'
loop_
 _atom_site_type_symbol
 _atom_site_label
 _atom_site_symmetry_multiplicity
 _atom_site_fract_x
 _atom_site_fract_y
 _atom_site_fract_z
 _atom_site_fract_occupancy
 Na  Na1  1  0.64652  0.35348  0.50000  1
 Na  Na2  1  0.35348  0.64652  0.50000  1
 O  O1  1  0.91263  0.22275  0.80902  1
 O  O2  1  0.22275  0.91263  0.80902  1
 O  O3  1  0.70104  0.70104  0.78128  1
 O  O4  1  0.08737  0.77725  0.19098  1
 O  O5  1  0.77725  0.08737  0.19098  1
 O  O6  1  0.29896  0.29896  0.21872  1
 Pt  Pt1  1  0.00000  -0.00000  0.50000  1
