CIF file written using JARVIS-Tools package.
data_MnGeAs2
_symmetry_space_group_name_H-M  'I-42d'
_cell_length_a       7.00789
_cell_length_b       7.00789
_cell_length_c       7.00789
_cell_angle_alpha    131.433
_cell_angle_beta     131.433
_cell_angle_gamma    71.1257

_symmetry_Int_Tables_number  122
_chemical_formula_structural  MnGeAs2
_chemical_formula_sum  Mn2Ge2As4
_cell_volume  189.39971311301355
_cell_formula_units_Z  2
loop_
  _symmetry_equiv_pos_site_id
 _symmetry_equiv_pos_as_xyz
 1  'x, y, z'
loop_
 _atom_site_type_symbol
 _atom_site_label
 _atom_site_symmetry_multiplicity
 _atom_site_fract_x
 _atom_site_fract_y
 _atom_site_fract_z
 _atom_site_fract_occupancy
 As  As1  1  0.13828  0.12500  0.51328  1
 As  As2  1  0.61172  0.62500  0.48672  1
 As  As3  1  0.87500  0.38828  0.01328  1
 As  As4  1  0.37500  0.86172  -0.01328  1
 Ge  Ge1  1  0.75000  0.25000  0.50000  1
 Ge  Ge2  1  0.00000  0.00000  0.00000  1
 Mn  Mn1  1  0.25000  0.75000  0.50000  1
 Mn  Mn2  1  0.50000  0.50000  -0.00000  1
