CIF file written using JARVIS-Tools package.
data_V6GaSi
_symmetry_space_group_name_H-M  'Pm-3'
_cell_length_a       4.73891
_cell_length_b       4.73891
_cell_length_c       4.73891
_cell_angle_alpha    90
_cell_angle_beta     90
_cell_angle_gamma    90

_symmetry_Int_Tables_number  200
_chemical_formula_structural  V6GaSi
_chemical_formula_sum  V6GaSi
_cell_volume  106.42272919890682
_cell_formula_units_Z  1
loop_
  _symmetry_equiv_pos_site_id
 _symmetry_equiv_pos_as_xyz
 1  'x, y, z'
loop_
 _atom_site_type_symbol
 _atom_site_label
 _atom_site_symmetry_multiplicity
 _atom_site_fract_x
 _atom_site_fract_y
 _atom_site_fract_z
 _atom_site_fract_occupancy
 Ga  Ga1  1  0.50000  0.50000  0.50000  1
 Si  Si1  1  0.00000  0.00000  0.00000  1
 V  V1  1  0.00000  0.50000  0.75778  1
 V  V2  1  0.50000  0.24222  0.00000  1
 V  V3  1  0.75778  0.00000  0.50000  1
 V  V4  1  0.00000  0.50000  0.24222  1
 V  V5  1  0.50000  0.75778  0.00000  1
 V  V6  1  0.24222  0.00000  0.50000  1
