CIF file written using JARVIS-Tools package.
data_Ba2PrTaO6
_symmetry_space_group_name_H-M  'C2/m'
_cell_length_a       6.10655
_cell_length_b       6.10654
_cell_length_c       6.17964
_cell_angle_alpha    60.0132
_cell_angle_beta     60.0133
_cell_angle_gamma    60.0614

_symmetry_Int_Tables_number  12
_chemical_formula_structural  Ba2PrTaO6
_chemical_formula_sum  Ba2PrTaO6
_cell_volume  163.05263625668837
_cell_formula_units_Z  1
loop_
  _symmetry_equiv_pos_site_id
 _symmetry_equiv_pos_as_xyz
 1  'x, y, z'
loop_
 _atom_site_type_symbol
 _atom_site_label
 _atom_site_symmetry_multiplicity
 _atom_site_fract_x
 _atom_site_fract_y
 _atom_site_fract_z
 _atom_site_fract_occupancy
 Ba  Ba1  1  0.75165  0.75165  0.74304  1
 Ba  Ba2  1  0.24835  0.24835  0.25696  1
 O  O1  1  0.69620  0.23221  0.30865  1
 O  O2  1  0.30380  0.76779  0.69135  1
 O  O3  1  0.76779  0.30380  0.69135  1
 O  O4  1  0.23221  0.69620  0.30865  1
 O  O5  1  0.72835  0.72835  0.20569  1
 O  O6  1  0.27165  0.27165  0.79431  1
 Pr  Pr1  1  0.00000  0.00000  0.00000  1
 Ta  Ta1  1  0.50000  0.50000  0.50000  1
