CIF file written using JARVIS-Tools package.
data_LiPd2Au
_symmetry_space_group_name_H-M  'Fm-3m'
_cell_length_a       4.44429
_cell_length_b       4.4443
_cell_length_c       4.44429
_cell_angle_alpha    60
_cell_angle_beta     60
_cell_angle_gamma    59.9999

_symmetry_Int_Tables_number  225
_chemical_formula_structural  LiPd2Au
_chemical_formula_sum  LiPd2Au
_cell_volume  62.07165806602854
_cell_formula_units_Z  1
loop_
  _symmetry_equiv_pos_site_id
 _symmetry_equiv_pos_as_xyz
 1  'x, y, z'
loop_
 _atom_site_type_symbol
 _atom_site_label
 _atom_site_symmetry_multiplicity
 _atom_site_fract_x
 _atom_site_fract_y
 _atom_site_fract_z
 _atom_site_fract_occupancy
 Au  Au1  1  0.50000  0.50000  0.50000  1
 Li  Li1  1  0.00000  0.00000  0.00000  1
 Pd  Pd1  1  0.25000  0.25000  0.25000  1
 Pd  Pd2  1  0.75000  0.75000  0.75000  1
