CIF file written using JARVIS-Tools package.
data_MoCl6
_symmetry_space_group_name_H-M  'P-31m'
_cell_length_a       6.01813
_cell_length_b       6.01813
_cell_length_c       5.51872
_cell_angle_alpha    90
_cell_angle_beta     90
_cell_angle_gamma    120

_symmetry_Int_Tables_number  162
_chemical_formula_structural  MoCl6
_chemical_formula_sum  MoCl6
_cell_volume  173.09808893941906
_cell_formula_units_Z  1
loop_
  _symmetry_equiv_pos_site_id
 _symmetry_equiv_pos_as_xyz
 1  'x, y, z'
loop_
 _atom_site_type_symbol
 _atom_site_label
 _atom_site_symmetry_multiplicity
 _atom_site_fract_x
 _atom_site_fract_y
 _atom_site_fract_z
 _atom_site_fract_occupancy
 Cl  Cl1  1  0.31309  0.31309  0.25825  1
 Cl  Cl2  1  0.00000  0.68691  0.25825  1
 Cl  Cl3  1  0.68691  0.00000  0.25825  1
 Cl  Cl4  1  -0.00000  0.31309  0.74175  1
 Cl  Cl5  1  0.31309  -0.00000  0.74175  1
 Cl  Cl6  1  0.68691  0.68691  0.74175  1
 Mo  Mo1  1  0.00000  0.00000  0.50000  1
