CIF file written using JARVIS-Tools package.
data_NdCu2O4
_symmetry_space_group_name_H-M  'I4_1/a'
_cell_length_a       5.82725
_cell_length_b       5.82602
_cell_length_c       6.39297
_cell_angle_alpha    117.1
_cell_angle_beta     117.106
_cell_angle_gamma    90.0148

_symmetry_Int_Tables_number  88
_chemical_formula_structural  NdCu2O4
_chemical_formula_sum  Nd2Cu4O8
_cell_volume  165.9704854408171
_cell_formula_units_Z  2
loop_
  _symmetry_equiv_pos_site_id
 _symmetry_equiv_pos_as_xyz
 1  'x, y, z'
loop_
 _atom_site_type_symbol
 _atom_site_label
 _atom_site_symmetry_multiplicity
 _atom_site_fract_x
 _atom_site_fract_y
 _atom_site_fract_z
 _atom_site_fract_occupancy
 Cu  Cu1  1  0.50000  0.00000  -0.00000  1
 Cu  Cu2  1  0.50000  0.50000  0.00000  1
 Cu  Cu3  1  0.00000  0.50000  0.50000  1
 Cu  Cu4  1  0.50000  0.50000  0.50000  1
 Nd  Nd1  1  0.87499  0.12499  0.74999  1
 Nd  Nd2  1  0.12501  0.87501  0.25001  1
 O  O1  1  0.70740  0.53123  0.85100  1
 O  O2  1  0.14360  0.81977  0.85100  1
 O  O3  1  0.29260  0.46877  0.14900  1
 O  O4  1  0.85640  0.18023  0.14900  1
 O  O5  1  0.53131  0.14364  0.35100  1
 O  O6  1  0.81969  0.70736  0.35100  1
 O  O7  1  0.18031  0.29264  0.64900  1
 O  O8  1  0.46869  0.85636  0.64900  1
