CIF file written using JARVIS-Tools package.
data_MnCrB2
_symmetry_space_group_name_H-M  'Amm2'
_cell_length_a       4.1307
_cell_length_b       4.13071
_cell_length_c       2.93038
_cell_angle_alpha    90
_cell_angle_beta     90
_cell_angle_gamma    137.926

_symmetry_Int_Tables_number  38
_chemical_formula_structural  MnCrB2
_chemical_formula_sum  MnCrB2
_cell_volume  33.50462081612384
_cell_formula_units_Z  1
loop_
  _symmetry_equiv_pos_site_id
 _symmetry_equiv_pos_as_xyz
 1  'x, y, z'
loop_
 _atom_site_type_symbol
 _atom_site_label
 _atom_site_symmetry_multiplicity
 _atom_site_fract_x
 _atom_site_fract_y
 _atom_site_fract_z
 _atom_site_fract_occupancy
 B  B1  1  0.43288  0.56712  0.50000  1
 B  B2  1  0.56579  0.43421  0.00000  1
 Cr  Cr1  1  0.14440  0.85560  0.50000  1
 Mn  Mn1  1  0.85693  0.14307  0.00000  1
