CIF file written using JARVIS-Tools package.
data_Cd2GaCuS4
_symmetry_space_group_name_H-M  'Cm'
_cell_length_a       7.64318
_cell_length_b       7.64318
_cell_length_c       6.84288
_cell_angle_alpha    64.3364
_cell_angle_beta     64.3364
_cell_angle_gamma    29.951

_symmetry_Int_Tables_number  8
_chemical_formula_structural  Cd2GaCuS4
_chemical_formula_sum  Cd2GaCuS4
_cell_volume  178.39876045939857
_cell_formula_units_Z  1
loop_
  _symmetry_equiv_pos_site_id
 _symmetry_equiv_pos_as_xyz
 1  'x, y, z'
loop_
 _atom_site_type_symbol
 _atom_site_label
 _atom_site_symmetry_multiplicity
 _atom_site_fract_x
 _atom_site_fract_y
 _atom_site_fract_z
 _atom_site_fract_occupancy
 Cd  Cd1  1  0.00217  0.00217  0.34951  1
 Cd  Cd2  1  0.50735  0.50735  0.81562  1
 Cu  Cu1  1  0.74615  0.74615  0.93093  1
 Ga  Ga1  1  0.25107  0.25107  0.39841  1
 S  S1  1  0.92182  0.92182  0.75331  1
 S  S2  1  0.42616  0.42616  0.23666  1
 S  S3  1  0.19349  0.19349  0.13579  1
 S  S4  1  0.70202  0.70202  0.62978  1
