CIF file written using JARVIS-Tools package.
data_Tl2GeF6
_symmetry_space_group_name_H-M  'P-3m1'
_cell_length_a       5.89965
_cell_length_b       5.89965
_cell_length_c       4.81953
_cell_angle_alpha    90
_cell_angle_beta     90
_cell_angle_gamma    120

_symmetry_Int_Tables_number  164
_chemical_formula_structural  Tl2GeF6
_chemical_formula_sum  Tl2GeF6
_cell_volume  145.27399756923558
_cell_formula_units_Z  1
loop_
  _symmetry_equiv_pos_site_id
 _symmetry_equiv_pos_as_xyz
 1  'x, y, z'
loop_
 _atom_site_type_symbol
 _atom_site_label
 _atom_site_symmetry_multiplicity
 _atom_site_fract_x
 _atom_site_fract_y
 _atom_site_fract_z
 _atom_site_fract_occupancy
 F  F1  1  0.85085  0.14915  0.21465  1
 F  F2  1  0.14915  0.85085  0.78535  1
 F  F3  1  0.85085  0.70170  0.21465  1
 F  F4  1  0.14915  0.29830  0.78535  1
 F  F5  1  0.29830  0.14915  0.21465  1
 F  F6  1  0.70170  0.85085  0.78535  1
 Ge  Ge1  1  0.00000  0.00000  0.00000  1
 Tl  Tl1  1  0.33333  0.66667  0.29866  1
 Tl  Tl2  1  0.66667  0.33333  0.70134  1
