CIF file written using JARVIS-Tools package.
data_K2CaPrO4
_symmetry_space_group_name_H-M  'P2/m'
_cell_length_a       3.62979
_cell_length_b       6.14882
_cell_length_c       6.53629
_cell_angle_alpha    72.1022
_cell_angle_beta     90
_cell_angle_gamma    90

_symmetry_Int_Tables_number  10
_chemical_formula_structural  K2CaPrO4
_chemical_formula_sum  K2CaPrO4
_cell_volume  138.8230108223468
_cell_formula_units_Z  1
loop_
  _symmetry_equiv_pos_site_id
 _symmetry_equiv_pos_as_xyz
 1  'x, y, z'
loop_
 _atom_site_type_symbol
 _atom_site_label
 _atom_site_symmetry_multiplicity
 _atom_site_fract_x
 _atom_site_fract_y
 _atom_site_fract_z
 _atom_site_fract_occupancy
 Ca  Ca1  1  0.00000  0.50000  0.50000  1
 K  K1  1  0.00000  0.00000  0.00000  1
 K  K2  1  0.50000  0.50000  -0.00000  1
 O  O1  1  0.50000  0.73600  0.30195  1
 O  O2  1  0.00000  0.23250  0.30094  1
 O  O3  1  0.50000  0.26400  0.69805  1
 O  O4  1  0.00000  0.76750  0.69906  1
 Pr  Pr1  1  0.50000  0.00000  0.50000  1
