CIF file written using JARVIS-Tools package.
data_CrHO2
_symmetry_space_group_name_H-M  'Pmn2_1'
_cell_length_a       2.9897
_cell_length_b       4.34347
_cell_length_c       4.88795
_cell_angle_alpha    90
_cell_angle_beta     90
_cell_angle_gamma    90

_symmetry_Int_Tables_number  31
_chemical_formula_structural  CrHO2
_chemical_formula_sum  Cr2H2O4
_cell_volume  63.47325992028222
_cell_formula_units_Z  2
loop_
  _symmetry_equiv_pos_site_id
 _symmetry_equiv_pos_as_xyz
 1  'x, y, z'
loop_
 _atom_site_type_symbol
 _atom_site_label
 _atom_site_symmetry_multiplicity
 _atom_site_fract_x
 _atom_site_fract_y
 _atom_site_fract_z
 _atom_site_fract_occupancy
 Cr  Cr1  1  0.50000  0.26536  0.48488  1
 Cr  Cr2  1  0.00000  0.73465  0.98488  1
 H  H1  1  0.50000  0.20432  0.96705  1
 H  H2  1  0.00000  0.79568  0.46705  1
 O  O1  1  0.00000  0.51113  0.63203  1
 O  O2  1  0.50000  0.48887  0.13203  1
 O  O3  1  0.50000  0.01026  0.83894  1
 O  O4  1  0.00000  0.98974  0.33894  1
