CIF file written using JARVIS-Tools package.
data_CdMoO
_symmetry_space_group_name_H-M  'P4mm'
_cell_length_a       2.83103
_cell_length_b       2.83103
_cell_length_c       6.88412
_cell_angle_alpha    90
_cell_angle_beta     90
_cell_angle_gamma    90

_symmetry_Int_Tables_number  99
_chemical_formula_structural  CdMoO
_chemical_formula_sum  CdMoO
_cell_volume  55.17431934784723
_cell_formula_units_Z  1
loop_
  _symmetry_equiv_pos_site_id
 _symmetry_equiv_pos_as_xyz
 1  'x, y, z'
loop_
 _atom_site_type_symbol
 _atom_site_label
 _atom_site_symmetry_multiplicity
 _atom_site_fract_x
 _atom_site_fract_y
 _atom_site_fract_z
 _atom_site_fract_occupancy
 Cd  Cd1  1  0.00000  0.00000  0.43512  1
 Mo  Mo1  1  0.00000  0.00000  0.85301  1
 O  O1  1  0.00000  0.00000  0.10296  1
