CIF file written using JARVIS-Tools package.
data_BaSr3
_symmetry_space_group_name_H-M  'I4/mmm'
_cell_length_a       7.30635
_cell_length_b       7.30634
_cell_length_c       7.30633
_cell_angle_alpha    130.72
_cell_angle_beta     130.72
_cell_angle_gamma    72.2579

_symmetry_Int_Tables_number  139
_chemical_formula_structural  BaSr3
_chemical_formula_sum  BaSr3
_cell_volume  219.02684218055174
_cell_formula_units_Z  1
loop_
  _symmetry_equiv_pos_site_id
 _symmetry_equiv_pos_as_xyz
 1  'x, y, z'
loop_
 _atom_site_type_symbol
 _atom_site_label
 _atom_site_symmetry_multiplicity
 _atom_site_fract_x
 _atom_site_fract_y
 _atom_site_fract_z
 _atom_site_fract_occupancy
 Ba  Ba1  1  0.00000  0.00000  0.00000  1
 Sr  Sr1  1  0.75000  0.25000  0.50000  1
 Sr  Sr2  1  0.25000  0.75000  0.50000  1
 Sr  Sr3  1  0.50000  0.50000  -0.00000  1
