CIF file written using JARVIS-Tools package.
data_PCl5
_symmetry_space_group_name_H-M  'Pmm2'
_cell_length_a       6.14424
_cell_length_b       7.02167
_cell_length_c       7.67066
_cell_angle_alpha    90
_cell_angle_beta     90
_cell_angle_gamma    90

_symmetry_Int_Tables_number  25
_chemical_formula_structural  PCl5
_chemical_formula_sum  PCl5
_cell_volume  330.9341351345551
_cell_formula_units_Z  1
loop_
  _symmetry_equiv_pos_site_id
 _symmetry_equiv_pos_as_xyz
 1  'x, y, z'
loop_
 _atom_site_type_symbol
 _atom_site_label
 _atom_site_symmetry_multiplicity
 _atom_site_fract_x
 _atom_site_fract_y
 _atom_site_fract_z
 _atom_site_fract_occupancy
 Cl  Cl1  1  0.82285  0.00000  0.21993  1
 Cl  Cl2  1  0.65815  0.74626  0.50000  1
 Cl  Cl3  1  0.65815  0.25374  0.50000  1
 Cl  Cl4  1  0.15750  0.00000  0.50000  1
 Cl  Cl5  1  0.82285  0.00000  0.78007  1
 P  P1  1  0.82473  0.00000  0.50000  1
