CIF file written using JARVIS-Tools package.
data_PCl
_symmetry_space_group_name_H-M  'P2_1/m'
_cell_length_a       5.26416
_cell_length_b       7.63352
_cell_length_c       3.54516
_cell_angle_alpha    62.4329
_cell_angle_beta     132.201
_cell_angle_gamma    106.419

_symmetry_Int_Tables_number  11
_chemical_formula_structural  PCl
_chemical_formula_sum  P2Cl2
_cell_volume  93.46531970933876
_cell_formula_units_Z  2
loop_
  _symmetry_equiv_pos_site_id
 _symmetry_equiv_pos_as_xyz
 1  'x, y, z'
loop_
 _atom_site_type_symbol
 _atom_site_label
 _atom_site_symmetry_multiplicity
 _atom_site_fract_x
 _atom_site_fract_y
 _atom_site_fract_z
 _atom_site_fract_occupancy
 Cl  Cl1  1  0.08942  0.95352  0.42919  1
 Cl  Cl2  1  0.60112  0.58879  0.80758  1
 P  P1  1  0.03863  0.26120  0.07132  1
 P  P2  1  0.65191  0.28110  0.16553  1
