CIF file written using JARVIS-Tools package.
data_GaNO
_symmetry_space_group_name_H-M  'I4_1md'
_cell_length_a       5.5706
_cell_length_b       5.5706
_cell_length_c       5.5706
_cell_angle_alpha    138.802
_cell_angle_beta     138.802
_cell_angle_gamma    59.677

_symmetry_Int_Tables_number  109
_chemical_formula_structural  GaNO
_chemical_formula_sum  Ga2N2O2
_cell_volume  74.24308915826546
_cell_formula_units_Z  2
loop_
  _symmetry_equiv_pos_site_id
 _symmetry_equiv_pos_as_xyz
 1  'x, y, z'
loop_
 _atom_site_type_symbol
 _atom_site_label
 _atom_site_symmetry_multiplicity
 _atom_site_fract_x
 _atom_site_fract_y
 _atom_site_fract_z
 _atom_site_fract_occupancy
 Ga  Ga1  1  0.00888  0.00888  0.00000  1
 Ga  Ga2  1  0.75888  0.25888  0.50000  1
 N  N1  1  0.53047  0.03047  0.50000  1
 N  N2  1  0.78047  0.78047  -0.00000  1
 O  O1  1  0.21072  0.21072  0.00000  1
 O  O2  1  0.96072  0.46072  0.50000  1
