CIF file written using JARVIS-Tools package.
data_Li2MnF3
_symmetry_space_group_name_H-M  'P-3m1'
_cell_length_a       2.83352
_cell_length_b       2.83352
_cell_length_c       8.13275
_cell_angle_alpha    90
_cell_angle_beta     90
_cell_angle_gamma    120

_symmetry_Int_Tables_number  164
_chemical_formula_structural  Li2MnF3
_chemical_formula_sum  Li2MnF3
_cell_volume  56.548255832148016
_cell_formula_units_Z  1
loop_
  _symmetry_equiv_pos_site_id
 _symmetry_equiv_pos_as_xyz
 1  'x, y, z'
loop_
 _atom_site_type_symbol
 _atom_site_label
 _atom_site_symmetry_multiplicity
 _atom_site_fract_x
 _atom_site_fract_y
 _atom_site_fract_z
 _atom_site_fract_occupancy
 F  F1  1  0.33333  0.66667  0.71721  1
 F  F2  1  0.66667  0.33333  0.28279  1
 F  F3  1  0.00000  0.00000  0.00000  1
 Li  Li1  1  0.33333  0.66667  0.14318  1
 Li  Li2  1  0.66667  0.33333  0.85682  1
 Mn  Mn1  1  0.00000  0.00000  0.50000  1
