CIF file written using JARVIS-Tools package.
data_Li5Mn3O8
_symmetry_space_group_name_H-M  'P2/m'
_cell_length_a       2.8469
_cell_length_b       4.94697
_cell_length_c       9.73916
_cell_angle_alpha    79.8224
_cell_angle_beta     90
_cell_angle_gamma    90

_symmetry_Int_Tables_number  10
_chemical_formula_structural  Li5Mn3O8
_chemical_formula_sum  Li5Mn3O8
_cell_volume  135.00310702629918
_cell_formula_units_Z  1
loop_
  _symmetry_equiv_pos_site_id
 _symmetry_equiv_pos_as_xyz
 1  'x, y, z'
loop_
 _atom_site_type_symbol
 _atom_site_label
 _atom_site_symmetry_multiplicity
 _atom_site_fract_x
 _atom_site_fract_y
 _atom_site_fract_z
 _atom_site_fract_occupancy
 Li  Li1  1  0.00000  0.21188  0.28371  1
 Li  Li2  1  0.50000  0.26000  0.72840  1
 Li  Li3  1  0.00000  0.78812  0.71629  1
 Li  Li4  1  0.50000  0.74000  0.27160  1
 Li  Li5  1  0.50000  0.00000  0.50000  1
 Mn  Mn1  1  0.00000  0.00000  0.00000  1
 Mn  Mn2  1  0.00000  0.50000  0.50000  1
 Mn  Mn3  1  0.50000  0.50000  0.00000  1
 O  O1  1  0.00000  0.37069  0.89209  1
 O  O2  1  0.50000  0.38073  0.38802  1
 O  O3  1  0.00000  0.84314  0.38235  1
 O  O4  1  0.50000  0.87089  0.89027  1
 O  O5  1  0.00000  0.15686  0.61765  1
 O  O6  1  0.50000  0.12911  0.10973  1
 O  O7  1  0.00000  0.62931  0.10791  1
 O  O8  1  0.50000  0.61927  0.61198  1
