CIF file written using JARVIS-Tools package.
data_MnTeO3
_symmetry_space_group_name_H-M  'Pnma'
_cell_length_a       5.48221
_cell_length_b       6.12327
_cell_length_c       7.76813
_cell_angle_alpha    90.0003
_cell_angle_beta     90.0004
_cell_angle_gamma    90.0002

_symmetry_Int_Tables_number  62
_chemical_formula_structural  MnTeO3
_chemical_formula_sum  Mn4Te4O2
_cell_volume  260.76840002696224
_cell_formula_units_Z  4
loop_
  _symmetry_equiv_pos_site_id
 _symmetry_equiv_pos_as_xyz
 1  'x, y, z'
loop_
 _atom_site_type_symbol
 _atom_site_label
 _atom_site_symmetry_multiplicity
 _atom_site_fract_x
 _atom_site_fract_y
 _atom_site_fract_z
 _atom_site_fract_occupancy
 Mn  Mn1  1  0.00000  0.50000  0.50000  1
 Mn  Mn2  1  0.49999  0.00000  0.00000  1
 Mn  Mn3  1  0.00001  0.50001  0.00000  1
 Mn  Mn4  1  0.49999  -0.00001  0.50000  1
 O  O1  1  0.16997  0.44098  0.25000  1
 O  O2  1  0.86305  0.81939  0.06921  1
 O  O3  1  0.66996  0.05901  0.75000  1
 O  O4  1  0.83005  0.55902  0.75000  1
 O  O5  1  0.33004  0.94099  0.25000  1
 O  O6  1  0.13694  0.18063  0.93078  1
 O  O7  1  0.36306  0.68061  0.56921  1
 O  O8  1  0.63695  0.31938  0.06921  1
 O  O9  1  0.13694  0.18062  0.56921  1
 O  O10  1  0.63695  0.31937  0.43078  1
 O  O11  1  0.36305  0.68062  0.93079  1
 O  O12  1  0.86304  0.81938  0.43078  1
 Te  Te1  1  0.98671  0.01284  0.25000  1
 Te  Te2  1  0.51329  0.51284  0.25000  1
 Te  Te3  1  0.48672  0.48715  0.75000  1
 Te  Te4  1  0.01328  0.98716  0.75000  1
