CIF file written using JARVIS-Tools package.
data_SrAsF
_symmetry_space_group_name_H-M  'P4mm'
_cell_length_a       3.29344
_cell_length_b       3.29344
_cell_length_c       7.58618
_cell_angle_alpha    90
_cell_angle_beta     90
_cell_angle_gamma    90

_symmetry_Int_Tables_number  99
_chemical_formula_structural  SrAsF
_chemical_formula_sum  SrAsF
_cell_volume  82.28556656638597
_cell_formula_units_Z  1
loop_
  _symmetry_equiv_pos_site_id
 _symmetry_equiv_pos_as_xyz
 1  'x, y, z'
loop_
 _atom_site_type_symbol
 _atom_site_label
 _atom_site_symmetry_multiplicity
 _atom_site_fract_x
 _atom_site_fract_y
 _atom_site_fract_z
 _atom_site_fract_occupancy
 As  As1  1  0.00000  0.00000  0.40076  1
 F  F1  1  0.00000  0.00000  0.70224  1
 Sr  Sr1  1  0.00000  0.00000  -0.01094  1
