CIF file written using JARVIS-Tools package.
data_MnNb3Se6
_symmetry_space_group_name_H-M  'P6_322'
_cell_length_a       6.09508
_cell_length_b       6.09509
_cell_length_c       12.9269
_cell_angle_alpha    90
_cell_angle_beta     90
_cell_angle_gamma    120

_symmetry_Int_Tables_number  182
_chemical_formula_structural  MnNb3Se6
_chemical_formula_sum  Mn2Nb6Se2
_cell_volume  415.89521186694583
_cell_formula_units_Z  2
loop_
  _symmetry_equiv_pos_site_id
 _symmetry_equiv_pos_as_xyz
 1  'x, y, z'
loop_
 _atom_site_type_symbol
 _atom_site_label
 _atom_site_symmetry_multiplicity
 _atom_site_fract_x
 _atom_site_fract_y
 _atom_site_fract_z
 _atom_site_fract_occupancy
 Mn  Mn1  1  0.33333  0.66667  0.25000  1
 Mn  Mn2  1  0.66667  0.33333  0.75000  1
 Nb  Nb1  1  0.33333  0.66667  0.00138  1
 Nb  Nb2  1  0.66667  0.33333  -0.00138  1
 Nb  Nb3  1  0.66667  0.33333  0.50138  1
 Nb  Nb4  1  0.33333  0.66667  0.49862  1
 Nb  Nb5  1  0.00000  0.00000  0.50000  1
 Nb  Nb6  1  0.00000  0.00000  0.00000  1
 Se  Se1  1  0.33414  0.32624  0.37031  1
 Se  Se2  1  -0.00790  0.32624  0.12969  1
 Se  Se3  1  -0.00790  0.66586  0.37031  1
 Se  Se4  1  0.32624  0.33414  0.62969  1
 Se  Se5  1  0.67376  0.00790  0.37031  1
 Se  Se6  1  0.00790  0.33414  0.87031  1
 Se  Se7  1  0.66586  0.67376  0.87031  1
 Se  Se8  1  0.32624  -0.00790  0.87031  1
 Se  Se9  1  0.00790  0.67376  0.62969  1
 Se  Se10  1  0.67376  0.66586  0.12969  1
 Se  Se11  1  0.66586  -0.00790  0.62969  1
 Se  Se12  1  0.33414  0.00790  0.12969  1
