CIF file written using JARVIS-Tools package.
data_Dy3MnAlS7
_symmetry_space_group_name_H-M  'P6_3'
_cell_length_a       9.48684
_cell_length_b       9.48684
_cell_length_c       6.09276
_cell_angle_alpha    90
_cell_angle_beta     90
_cell_angle_gamma    120

_symmetry_Int_Tables_number  173
_chemical_formula_structural  Dy3MnAlS7
_chemical_formula_sum  Dy6Mn2Al2S4
_cell_volume  474.8839009088022
_cell_formula_units_Z  2
loop_
  _symmetry_equiv_pos_site_id
 _symmetry_equiv_pos_as_xyz
 1  'x, y, z'
loop_
 _atom_site_type_symbol
 _atom_site_label
 _atom_site_symmetry_multiplicity
 _atom_site_fract_x
 _atom_site_fract_y
 _atom_site_fract_z
 _atom_site_fract_occupancy
 Al  Al1  1  0.66667  0.33333  0.15423  1
 Al  Al2  1  0.33333  0.66667  0.65423  1
 Dy  Dy1  1  0.78385  0.15885  0.72705  1
 Dy  Dy2  1  0.37500  0.21615  0.72705  1
 Dy  Dy3  1  0.84115  0.62500  0.72705  1
 Dy  Dy4  1  0.21615  0.84115  0.22705  1
 Dy  Dy5  1  0.62500  0.78385  0.22705  1
 Dy  Dy6  1  0.15885  0.37500  0.22705  1
 Mn  Mn1  1  0.00000  0.00000  0.56489  1
 Mn  Mn2  1  0.00000  0.00000  0.06489  1
 S  S1  1  0.87359  0.09856  0.31978  1
 S  S2  1  0.66667  0.33333  0.51868  1
 S  S3  1  0.90144  0.77503  0.31978  1
 S  S4  1  0.12641  0.90144  0.81978  1
 S  S5  1  0.77503  0.87359  0.81978  1
 S  S6  1  0.22497  0.12641  0.31978  1
 S  S7  1  0.47770  0.91402  0.50260  1
 S  S8  1  0.52230  0.08598  0.00260  1
 S  S9  1  0.56368  0.47770  0.00260  1
 S  S10  1  0.08598  0.56368  0.50260  1
 S  S11  1  0.09856  0.22497  0.81978  1
 S  S12  1  0.43632  0.52230  0.50260  1
 S  S13  1  0.91402  0.43632  0.00260  1
 S  S14  1  0.33333  0.66667  0.01868  1
