CIF file written using JARVIS-Tools package.
data_I2N
_symmetry_space_group_name_H-M  'Pm'
_cell_length_a       4.75395
_cell_length_b       3.67389
_cell_length_c       5.65499
_cell_angle_alpha    90
_cell_angle_beta     93.9624
_cell_angle_gamma    90

_symmetry_Int_Tables_number  6
_chemical_formula_structural  I2N
_chemical_formula_sum  I2N
_cell_volume  98.53104633776951
_cell_formula_units_Z  1
loop_
  _symmetry_equiv_pos_site_id
 _symmetry_equiv_pos_as_xyz
 1  'x, y, z'
loop_
 _atom_site_type_symbol
 _atom_site_label
 _atom_site_symmetry_multiplicity
 _atom_site_fract_x
 _atom_site_fract_y
 _atom_site_fract_z
 _atom_site_fract_occupancy
 I  I1  1  -0.22671  0.00000  -0.00856  1
 I  I2  1  0.27585  0.00000  0.52302  1
 N  N1  1  0.35086  0.00000  -0.11446  1
