CIF file written using JARVIS-Tools package.
data_I2N
_symmetry_space_group_name_H-M  'P1'
_cell_length_a       4.12476
_cell_length_b       4.12638
_cell_length_c       6.68086
_cell_angle_alpha    75.0704
_cell_angle_beta     105.443
_cell_angle_gamma    125.858

_symmetry_Int_Tables_number  1
_chemical_formula_structural  I2N
_chemical_formula_sum  I2N
_cell_volume  88.07694862120746
_cell_formula_units_Z  1
loop_
  _symmetry_equiv_pos_site_id
 _symmetry_equiv_pos_as_xyz
 1  'x, y, z'
loop_
 _atom_site_type_symbol
 _atom_site_label
 _atom_site_symmetry_multiplicity
 _atom_site_fract_x
 _atom_site_fract_y
 _atom_site_fract_z
 _atom_site_fract_occupancy
 I  I1  1  0.80224  0.18031  0.35287  1
 I  I2  1  0.65073  0.31560  0.81484  1
 N  N1  1  0.88074  0.09866  0.08398  1
