CIF file written using JARVIS-Tools package.
data_SrMnO3
_symmetry_space_group_name_H-M  'P6_3/mmc'
_cell_length_a       5.46248
_cell_length_b       5.46247
_cell_length_c       13.4834
_cell_angle_alpha    90
_cell_angle_beta     90
_cell_angle_gamma    120

_symmetry_Int_Tables_number  194
_chemical_formula_structural  SrMnO3
_chemical_formula_sum  Sr6Mn6O8
_cell_volume  348.42564593307526
_cell_formula_units_Z  6
loop_
  _symmetry_equiv_pos_site_id
 _symmetry_equiv_pos_as_xyz
 1  'x, y, z'
loop_
 _atom_site_type_symbol
 _atom_site_label
 _atom_site_symmetry_multiplicity
 _atom_site_fract_x
 _atom_site_fract_y
 _atom_site_fract_z
 _atom_site_fract_occupancy
 Mn  Mn1  1  0.66667  0.33333  0.34394  1
 Mn  Mn2  1  0.33333  0.66667  0.65606  1
 Mn  Mn3  1  0.00000  0.00000  0.50000  1
 Mn  Mn4  1  0.33333  0.66667  0.84394  1
 Mn  Mn5  1  0.66667  0.33333  0.15606  1
 Mn  Mn6  1  0.00000  0.00000  0.00000  1
 O  O1  1  0.97246  0.48623  0.25000  1
 O  O2  1  0.83568  0.16432  0.41812  1
 O  O3  1  0.02754  0.51377  0.75000  1
 O  O4  1  0.67135  0.83568  0.91812  1
 O  O5  1  0.48623  0.97246  0.75000  1
 O  O6  1  0.48623  0.51377  0.75000  1
 O  O7  1  0.83568  0.67135  0.08188  1
 O  O8  1  0.51377  0.02754  0.25000  1
 O  O9  1  0.51377  0.48623  0.25000  1
 O  O10  1  0.32865  0.16432  0.41812  1
 O  O11  1  0.16432  0.32865  0.58188  1
 O  O12  1  0.32865  0.16432  0.08188  1
 O  O13  1  0.16432  0.83568  0.91812  1
 O  O14  1  0.16432  0.32865  0.91812  1
 O  O15  1  0.83568  0.67135  0.41812  1
 O  O16  1  0.83568  0.16432  0.08188  1
 O  O17  1  0.16432  0.83568  0.58188  1
 O  O18  1  0.67135  0.83568  0.58188  1
 Sr  Sr1  1  0.33333  0.66667  0.09020  1
 Sr  Sr2  1  0.66667  0.33333  0.90980  1
 Sr  Sr3  1  0.66667  0.33333  0.59020  1
 Sr  Sr4  1  0.33333  0.66667  0.40980  1
 Sr  Sr5  1  0.00000  0.00000  0.75000  1
 Sr  Sr6  1  0.00000  0.00000  0.25000  1
