CIF file written using JARVIS-Tools package.
data_Li2H
_symmetry_space_group_name_H-M  'P2/m'
_cell_length_a       2.66296
_cell_length_b       3.06034
_cell_length_c       5.25356
_cell_angle_alpha    90
_cell_angle_beta     102.126
_cell_angle_gamma    90

_symmetry_Int_Tables_number  10
_chemical_formula_structural  Li2H
_chemical_formula_sum  Li2H
_cell_volume  41.85898957459974
_cell_formula_units_Z  1
loop_
  _symmetry_equiv_pos_site_id
 _symmetry_equiv_pos_as_xyz
 1  'x, y, z'
loop_
 _atom_site_type_symbol
 _atom_site_label
 _atom_site_symmetry_multiplicity
 _atom_site_fract_x
 _atom_site_fract_y
 _atom_site_fract_z
 _atom_site_fract_occupancy
 H  H1  1  0.46667  0.00000  0.13334  1
 Li  Li1  1  -0.13881  0.00000  -0.10955  1
 Li  Li2  1  0.07214  0.00000  0.37621  1
