CIF file written using JARVIS-Tools package.
data_BiSbTe2
_symmetry_space_group_name_H-M  'P3m1'
_cell_length_a       4.36503
_cell_length_b       4.36503
_cell_length_c       25.5322
_cell_angle_alpha    90
_cell_angle_beta     90
_cell_angle_gamma    120

_symmetry_Int_Tables_number  156
_chemical_formula_structural  BiSbTe2
_chemical_formula_sum  Bi3Sb3Te6
_cell_volume  421.3016370589916
_cell_formula_units_Z  3
loop_
  _symmetry_equiv_pos_site_id
 _symmetry_equiv_pos_as_xyz
 1  'x, y, z'
loop_
 _atom_site_type_symbol
 _atom_site_label
 _atom_site_symmetry_multiplicity
 _atom_site_fract_x
 _atom_site_fract_y
 _atom_site_fract_z
 _atom_site_fract_occupancy
 Bi  Bi1  1  0.33333  0.66667  0.87381  1
 Bi  Bi2  1  0.33333  0.66667  0.12554  1
 Bi  Bi3  1  0.66667  0.33333  0.46798  1
 Sb  Sb1  1  0.00000  0.00000  0.53306  1
 Sb  Sb2  1  0.33333  0.66667  0.71058  1
 Sb  Sb3  1  0.33333  0.66667  0.28876  1
 Te  Te1  1  0.66667  0.33333  0.20998  1
 Te  Te2  1  0.00000  0.00000  0.79076  1
 Te  Te3  1  0.66667  0.33333  0.94346  1
 Te  Te4  1  0.00000  0.00000  0.05623  1
 Te  Te5  1  0.66667  0.33333  0.64400  1
 Te  Te6  1  0.00000  0.00000  0.35586  1
