CIF file written using JARVIS-Tools package.
data_BaCl2
_symmetry_space_group_name_H-M  'P2/m'
_cell_length_a       5.47665
_cell_length_b       5.18809
_cell_length_c       5.46431
_cell_angle_alpha    90
_cell_angle_beta     119.748
_cell_angle_gamma    90

_symmetry_Int_Tables_number  10
_chemical_formula_structural  BaCl2
_chemical_formula_sum  BaCl2
_cell_volume  134.7986776217844
_cell_formula_units_Z  1
loop_
  _symmetry_equiv_pos_site_id
 _symmetry_equiv_pos_as_xyz
 1  'x, y, z'
loop_
 _atom_site_type_symbol
 _atom_site_label
 _atom_site_symmetry_multiplicity
 _atom_site_fract_x
 _atom_site_fract_y
 _atom_site_fract_z
 _atom_site_fract_occupancy
 Ba  Ba1  1  0.46666  0.00000  0.13333  1
 Cl  Cl1  1  -0.20030  0.00000  -0.19991  1
 Cl  Cl2  1  0.13364  0.00000  0.46658  1
