CIF file written using JARVIS-Tools package.
data_MoN
_symmetry_space_group_name_H-M  'P4/mmm'
_cell_length_a       2.7885
_cell_length_b       2.7885
_cell_length_c       3.8101
_cell_angle_alpha    90
_cell_angle_beta     90
_cell_angle_gamma    90

_symmetry_Int_Tables_number  123
_chemical_formula_structural  MoN
_chemical_formula_sum  MoN
_cell_volume  29.62621673612558
_cell_formula_units_Z  1
loop_
  _symmetry_equiv_pos_site_id
 _symmetry_equiv_pos_as_xyz
 1  'x, y, z'
loop_
 _atom_site_type_symbol
 _atom_site_label
 _atom_site_symmetry_multiplicity
 _atom_site_fract_x
 _atom_site_fract_y
 _atom_site_fract_z
 _atom_site_fract_occupancy
 Mo  Mo1  1  0.00000  0.00000  0.75006  1
 N  N1  1  0.00000  0.00000  0.24994  1
