CIF file written using JARVIS-Tools package.
data_NaGe
_symmetry_space_group_name_H-M  'P2_1/m'
_cell_length_a       3.98155
_cell_length_b       4.64335
_cell_length_c       5.82848
_cell_angle_alpha    113.207
_cell_angle_beta     89.8678
_cell_angle_gamma    90.0018

_symmetry_Int_Tables_number  11
_chemical_formula_structural  NaGe
_chemical_formula_sum  Na2Ge2
_cell_volume  99.03602895335065
_cell_formula_units_Z  2
loop_
  _symmetry_equiv_pos_site_id
 _symmetry_equiv_pos_as_xyz
 1  'x, y, z'
loop_
 _atom_site_type_symbol
 _atom_site_label
 _atom_site_symmetry_multiplicity
 _atom_site_fract_x
 _atom_site_fract_y
 _atom_site_fract_z
 _atom_site_fract_occupancy
 Ge  Ge1  1  0.19796  0.87560  0.27854  1
 Ge  Ge2  1  0.69884  0.73555  0.00204  1
 Na  Na1  1  0.19879  0.16115  0.85006  1
 Na  Na2  1  0.69793  0.44996  0.43046  1
