CIF file written using JARVIS-Tools package.
data_Co3BiO8
_symmetry_space_group_name_H-M  'R-3m'
_cell_length_a       6.28888
_cell_length_b       6.28888
_cell_length_c       6.28888
_cell_angle_alpha    52.8828
_cell_angle_beta     52.8828
_cell_angle_gamma    52.8828

_symmetry_Int_Tables_number  166
_chemical_formula_structural  Co3BiO8
_chemical_formula_sum  Co3BiO8
_cell_volume  146.52458355076897
_cell_formula_units_Z  1
loop_
  _symmetry_equiv_pos_site_id
 _symmetry_equiv_pos_as_xyz
 1  'x, y, z'
loop_
 _atom_site_type_symbol
 _atom_site_label
 _atom_site_symmetry_multiplicity
 _atom_site_fract_x
 _atom_site_fract_y
 _atom_site_fract_z
 _atom_site_fract_occupancy
 Bi  Bi1  1  0.50000  0.50000  0.50000  1
 Co  Co1  1  0.00000  0.50000  0.50000  1
 Co  Co2  1  0.50000  0.00000  0.50000  1
 Co  Co3  1  0.50000  0.50000  0.00000  1
 O  O1  1  0.24000  0.71287  0.24000  1
 O  O2  1  0.71287  0.24000  0.24000  1
 O  O3  1  0.72593  0.72593  0.72593  1
 O  O4  1  0.24000  0.24000  0.71287  1
 O  O5  1  0.76000  0.76000  0.28713  1
 O  O6  1  0.27407  0.27407  0.27407  1
 O  O7  1  0.28713  0.76000  0.76000  1
 O  O8  1  0.76000  0.28713  0.76000  1
