CIF file written using JARVIS-Tools package.
data_YSiO
_symmetry_space_group_name_H-M  'Pm'
_cell_length_a       6.35013
_cell_length_b       6.35013
_cell_length_c       4.7626
_cell_angle_alpha    90
_cell_angle_beta     90
_cell_angle_gamma    90

_symmetry_Int_Tables_number  6
_chemical_formula_structural  YSiO
_chemical_formula_sum  YSiO
_cell_volume  192.04742754606858
_cell_formula_units_Z  1
loop_
  _symmetry_equiv_pos_site_id
 _symmetry_equiv_pos_as_xyz
 1  'x, y, z'
loop_
 _atom_site_type_symbol
 _atom_site_label
 _atom_site_symmetry_multiplicity
 _atom_site_fract_x
 _atom_site_fract_y
 _atom_site_fract_z
 _atom_site_fract_occupancy
 O  O1  1  0.27303  0.00388  0.00000  1
 Si  Si1  1  -0.07948  -0.01667  0.00000  1
 Y  Y1  1  0.00203  0.33808  0.00000  1
