CIF file written using JARVIS-Tools package.
data_Li4Ni3O2F6
_symmetry_space_group_name_H-M  'P-1'
_cell_length_a       5.0982
_cell_length_b       11.3332
_cell_length_c       5.09083
_cell_angle_alpha    94.2095
_cell_angle_beta     80.0425
_cell_angle_gamma    98.6112

_symmetry_Int_Tables_number  2
_chemical_formula_structural  Li4Ni3O2F6
_chemical_formula_sum  Li8Ni6O4F2
_cell_volume  286.10390317472496
_cell_formula_units_Z  2
loop_
  _symmetry_equiv_pos_site_id
 _symmetry_equiv_pos_as_xyz
 1  'x, y, z'
loop_
 _atom_site_type_symbol
 _atom_site_label
 _atom_site_symmetry_multiplicity
 _atom_site_fract_x
 _atom_site_fract_y
 _atom_site_fract_z
 _atom_site_fract_occupancy
 F  F1  1  0.54022  0.77938  0.35055  1
 F  F2  1  0.58478  0.34562  0.14945  1
 F  F3  1  0.68670  0.90714  0.88242  1
 F  F4  1  0.18670  0.40714  0.88242  1
 F  F5  1  0.93829  0.71786  0.61758  1
 F  F6  1  0.43829  0.21786  0.61759  1
 F  F7  1  0.20645  0.97500  0.61960  1
 F  F8  1  0.70645  0.47500  0.61959  1
 F  F9  1  0.41856  0.65000  0.88041  1
 F  F10  1  0.91856  0.15000  0.88041  1
 F  F11  1  0.04022  0.27938  0.35055  1
 F  F12  1  0.08478  0.84562  0.14945  1
 Li  Li1  1  0.01678  -0.00125  0.01197  1
 Li  Li2  1  0.86575  0.87776  0.51093  1
 Li  Li3  1  0.51678  0.49875  0.01197  1
 Li  Li4  1  0.10823  0.12624  0.48801  1
 Li  Li5  1  0.60823  0.62624  0.48801  1
 Li  Li6  1  0.25924  0.24724  0.98908  1
 Li  Li7  1  0.75924  0.74724  0.98908  1
 Li  Li8  1  0.36575  0.37776  0.51093  1
 Ni  Ni1  1  0.68051  0.18238  0.24919  1
 Ni  Ni2  1  0.44449  0.94262  0.25081  1
 Ni  Ni3  1  0.18051  0.68238  0.24919  1
 Ni  Ni4  1  0.94449  0.44262  0.25081  1
 Ni  Ni5  1  0.56251  0.06251  0.75000  1
 Ni  Ni6  1  0.06250  0.56251  0.75000  1
 O  O1  1  0.86507  0.59051  0.11110  1
 O  O2  1  0.36507  0.09051  0.11110  1
 O  O3  1  0.75993  0.03450  0.38891  1
 O  O4  1  0.25993  0.53450  0.38891  1
