CIF file written using JARVIS-Tools package.
data_AuS2
_symmetry_space_group_name_H-M  'Pmmm'
_cell_length_a       3.54236
_cell_length_b       2.92075
_cell_length_c       6.59368
_cell_angle_alpha    90
_cell_angle_beta     90
_cell_angle_gamma    90

_symmetry_Int_Tables_number  47
_chemical_formula_structural  AuS2
_chemical_formula_sum  AuS2
_cell_volume  68.22064275345487
_cell_formula_units_Z  1
loop_
  _symmetry_equiv_pos_site_id
 _symmetry_equiv_pos_as_xyz
 1  'x, y, z'
loop_
 _atom_site_type_symbol
 _atom_site_label
 _atom_site_symmetry_multiplicity
 _atom_site_fract_x
 _atom_site_fract_y
 _atom_site_fract_z
 _atom_site_fract_occupancy
 Au  Au1  1  0.46667  0.00000  0.00000  1
 S  S1  1  -0.03333  0.00000  0.75215  1
 S  S2  1  -0.03333  0.00000  0.24785  1
