CIF file written using JARVIS-Tools package.
data_TbAsPd
_symmetry_space_group_name_H-M  'Pnma'
_cell_length_a       4.15103
_cell_length_b       7.09842
_cell_length_c       7.97912
_cell_angle_alpha    90
_cell_angle_beta     90
_cell_angle_gamma    90

_symmetry_Int_Tables_number  62
_chemical_formula_structural  TbAsPd
_chemical_formula_sum  Tb4As4Pd4
_cell_volume  235.11068786301297
_cell_formula_units_Z  4
loop_
  _symmetry_equiv_pos_site_id
 _symmetry_equiv_pos_as_xyz
 1  'x, y, z'
loop_
 _atom_site_type_symbol
 _atom_site_label
 _atom_site_symmetry_multiplicity
 _atom_site_fract_x
 _atom_site_fract_y
 _atom_site_fract_z
 _atom_site_fract_occupancy
 As  As1  1  0.25000  0.24762  0.88064  1
 As  As2  1  0.25000  0.74762  0.61936  1
 As  As3  1  0.75000  0.75238  0.11936  1
 As  As4  1  0.75000  0.25238  0.38064  1
 Pd  Pd1  1  0.25000  0.64440  0.93707  1
 Pd  Pd2  1  0.25000  0.14440  0.56293  1
 Pd  Pd3  1  0.75000  0.35560  0.06293  1
 Pd  Pd4  1  0.75000  0.85560  0.43707  1
 Tb  Tb1  1  0.25000  0.53087  0.30684  1
 Tb  Tb2  1  0.25000  0.03087  0.19316  1
 Tb  Tb3  1  0.75000  0.46913  0.69316  1
 Tb  Tb4  1  0.75000  0.96913  0.80684  1
