CIF file written using JARVIS-Tools package.
data_CaZrO2
_symmetry_space_group_name_H-M  'P-3m1'
_cell_length_a       3.12843
_cell_length_b       3.12843
_cell_length_c       6.05988
_cell_angle_alpha    90
_cell_angle_beta     90
_cell_angle_gamma    120

_symmetry_Int_Tables_number  164
_chemical_formula_structural  CaZrO2
_chemical_formula_sum  CaZrO2
_cell_volume  51.36254442863456
_cell_formula_units_Z  1
loop_
  _symmetry_equiv_pos_site_id
 _symmetry_equiv_pos_as_xyz
 1  'x, y, z'
loop_
 _atom_site_type_symbol
 _atom_site_label
 _atom_site_symmetry_multiplicity
 _atom_site_fract_x
 _atom_site_fract_y
 _atom_site_fract_z
 _atom_site_fract_occupancy
 Ca  Ca1  1  0.00000  0.00000  0.50000  1
 O  O1  1  0.33333  0.66667  0.74584  1
 O  O2  1  0.66667  0.33333  0.25416  1
 Zr  Zr1  1  0.00000  0.00000  0.00000  1
