CIF file written using JARVIS-Tools package.
data_CaO
_symmetry_space_group_name_H-M  'P6_3/mmc'
_cell_length_a       3.98548
_cell_length_b       3.99025
_cell_length_c       6.23277
_cell_angle_alpha    129.754
_cell_angle_beta     71.3005
_cell_angle_gamma    120.101

_symmetry_Int_Tables_number  194
_chemical_formula_structural  CaO
_chemical_formula_sum  Ca2O2
_cell_volume  65.92674350709208
_cell_formula_units_Z  2
loop_
  _symmetry_equiv_pos_site_id
 _symmetry_equiv_pos_as_xyz
 1  'x, y, z'
loop_
 _atom_site_type_symbol
 _atom_site_label
 _atom_site_symmetry_multiplicity
 _atom_site_fract_x
 _atom_site_fract_y
 _atom_site_fract_z
 _atom_site_fract_occupancy
 Ca  Ca1  1  0.75795  -0.29194  0.78917  1
 Ca  Ca2  1  0.09049  0.87459  0.28916  1
 O  O1  1  0.75789  0.20795  0.28914  1
 O  O2  1  0.09056  0.37467  0.78915  1
