CIF file written using JARVIS-Tools package.
data_AgPO
_symmetry_space_group_name_H-M  'Pm'
_cell_length_a       5.89537
_cell_length_b       3.83077
_cell_length_c       2.8861
_cell_angle_alpha    90
_cell_angle_beta     90
_cell_angle_gamma    50.4926

_symmetry_Int_Tables_number  6
_chemical_formula_structural  AgPO
_chemical_formula_sum  AgPO
_cell_volume  50.28844310180146
_cell_formula_units_Z  1
loop_
  _symmetry_equiv_pos_site_id
 _symmetry_equiv_pos_as_xyz
 1  'x, y, z'
loop_
 _atom_site_type_symbol
 _atom_site_label
 _atom_site_symmetry_multiplicity
 _atom_site_fract_x
 _atom_site_fract_y
 _atom_site_fract_z
 _atom_site_fract_occupancy
 Ag  Ag1  1  -0.25874  0.09561  0.00000  1
 O  O1  1  0.42272  -0.08434  0.00000  1
 P  P1  1  0.07984  0.26076  0.00000  1
