CIF file written using JARVIS-Tools package.
data_PtSCl2
_symmetry_space_group_name_H-M  'P4/mmm'
_cell_length_a       3.75499
_cell_length_b       3.75499
_cell_length_c       5.43288
_cell_angle_alpha    90
_cell_angle_beta     90
_cell_angle_gamma    90

_symmetry_Int_Tables_number  123
_chemical_formula_structural  PtSCl2
_chemical_formula_sum  PtSCl2
_cell_volume  76.60345126102831
_cell_formula_units_Z  1
loop_
  _symmetry_equiv_pos_site_id
 _symmetry_equiv_pos_as_xyz
 1  'x, y, z'
loop_
 _atom_site_type_symbol
 _atom_site_label
 _atom_site_symmetry_multiplicity
 _atom_site_fract_x
 _atom_site_fract_y
 _atom_site_fract_z
 _atom_site_fract_occupancy
 Cl  Cl1  1  0.00000  0.00000  0.50251  1
 Cl  Cl2  1  0.50000  0.50000  0.00257  1
 Pt  Pt1  1  0.50000  0.50000  0.50243  1
 S  S1  1  0.00000  0.00000  0.00249  1
