CIF file written using JARVIS-Tools package.
data_CrHF4
_symmetry_space_group_name_H-M  'P-1'
_cell_length_a       3.0782
_cell_length_b       4.00543
_cell_length_c       4.83579
_cell_angle_alpha    79.4545
_cell_angle_beta     69.805
_cell_angle_gamma    91.2383

_symmetry_Int_Tables_number  2
_chemical_formula_structural  CrHF4
_chemical_formula_sum  CrHF4
_cell_volume  54.779600888169355
_cell_formula_units_Z  1
loop_
  _symmetry_equiv_pos_site_id
 _symmetry_equiv_pos_as_xyz
 1  'x, y, z'
loop_
 _atom_site_type_symbol
 _atom_site_label
 _atom_site_symmetry_multiplicity
 _atom_site_fract_x
 _atom_site_fract_y
 _atom_site_fract_z
 _atom_site_fract_occupancy
 Cr  Cr1  1  0.00000  0.00000  0.00000  1
 F  F1  1  0.38187  0.11322  0.22070  1
 F  F2  1  0.82846  0.58134  0.28793  1
 F  F3  1  0.61813  -0.11322  0.77930  1
 F  F4  1  0.17154  0.41866  0.71207  1
 H  H1  1  0.50000  0.50000  0.50000  1
