CIF file written using JARVIS-Tools package.
data_V3As2O9
_symmetry_space_group_name_H-M  'P4bm'
_cell_length_a       9.09499
_cell_length_b       9.09499
_cell_length_c       4.22312
_cell_angle_alpha    90
_cell_angle_beta     90
_cell_angle_gamma    90

_symmetry_Int_Tables_number  100
_chemical_formula_structural  V3As2O9
_chemical_formula_sum  V6As4O8
_cell_volume  349.33183013121203
_cell_formula_units_Z  2
loop_
  _symmetry_equiv_pos_site_id
 _symmetry_equiv_pos_as_xyz
 1  'x, y, z'
loop_
 _atom_site_type_symbol
 _atom_site_label
 _atom_site_symmetry_multiplicity
 _atom_site_fract_x
 _atom_site_fract_y
 _atom_site_fract_z
 _atom_site_fract_occupancy
 As  As1  1  0.79907  0.29907  0.74628  1
 As  As2  1  0.20093  0.70093  0.74628  1
 As  As3  1  0.70093  0.79907  0.74628  1
 As  As4  1  0.29907  0.20093  0.74628  1
 O  O1  1  0.00000  0.00000  0.04515  1
 O  O2  1  0.67827  0.62413  0.52166  1
 O  O3  1  0.32173  0.37587  0.52166  1
 O  O4  1  0.17827  0.87587  0.52166  1
 O  O5  1  0.37943  0.87943  -0.01870  1
 O  O6  1  0.37587  0.67827  0.52166  1
 O  O7  1  0.62413  0.32173  0.52166  1
 O  O8  1  0.12413  0.17827  0.52166  1
 O  O9  1  0.82173  0.12413  0.52166  1
 O  O10  1  0.59524  0.90476  0.45312  1
 O  O11  1  0.09524  0.59524  0.45312  1
 O  O12  1  0.62057  0.12057  -0.01870  1
 O  O13  1  0.50000  0.50000  0.04515  1
 O  O14  1  0.87587  0.82173  0.52166  1
 O  O15  1  0.87943  0.62057  -0.01870  1
 O  O16  1  0.12057  0.37943  -0.01870  1
 O  O17  1  0.40476  0.09524  0.45312  1
 O  O18  1  0.90476  0.40476  0.45312  1
 V  V1  1  0.00000  0.00000  0.43288  1
 V  V2  1  0.50000  0.50000  0.43288  1
 V  V3  1  0.61506  0.11506  0.37296  1
 V  V4  1  0.38494  0.88494  0.37296  1
 V  V5  1  0.11506  0.38494  0.37296  1
 V  V6  1  0.88494  0.61506  0.37296  1
