CIF file written using JARVIS-Tools package.
data_TmFeB4
_symmetry_space_group_name_H-M  'Pbam'
_cell_length_a       3.35673
_cell_length_b       5.84289
_cell_length_c       11.2984
_cell_angle_alpha    90
_cell_angle_beta     90
_cell_angle_gamma    90

_symmetry_Int_Tables_number  55
_chemical_formula_structural  TmFeB4
_chemical_formula_sum  Tm4Fe4B6
_cell_volume  221.59528126201735
_cell_formula_units_Z  4
loop_
  _symmetry_equiv_pos_site_id
 _symmetry_equiv_pos_as_xyz
 1  'x, y, z'
loop_
 _atom_site_type_symbol
 _atom_site_label
 _atom_site_symmetry_multiplicity
 _atom_site_fract_x
 _atom_site_fract_y
 _atom_site_fract_z
 _atom_site_fract_occupancy
 B  B1  1  0.00000  0.47546  0.69111  1
 B  B2  1  0.00000  0.11181  0.04638  1
 B  B3  1  0.00000  0.88819  0.95362  1
 B  B4  1  0.00000  0.38819  0.54638  1
 B  B5  1  0.00000  0.28392  0.81584  1
 B  B6  1  0.00000  0.13812  0.46861  1
 B  B7  1  0.00000  0.86188  0.53139  1
 B  B8  1  0.00000  0.61181  0.45362  1
 B  B9  1  0.00000  0.63812  0.03139  1
 B  B10  1  0.00000  0.02454  0.19111  1
 B  B11  1  0.00000  0.97546  0.80889  1
 B  B12  1  0.00000  0.71608  0.18416  1
 B  B13  1  0.00000  0.52454  0.30889  1
 B  B14  1  0.00000  0.21608  0.31584  1
 B  B15  1  0.00000  0.78392  0.68416  1
 B  B16  1  0.00000  0.36188  0.96861  1
 Fe  Fe1  1  0.50000  0.86624  0.08893  1
 Fe  Fe2  1  0.50000  0.13376  0.91107  1
 Fe  Fe3  1  0.50000  0.63376  0.58893  1
 Fe  Fe4  1  0.50000  0.36624  0.41107  1
 Tm  Tm1  1  0.50000  0.87299  0.34978  1
 Tm  Tm2  1  0.50000  0.12701  0.65022  1
 Tm  Tm3  1  0.50000  0.62701  0.84978  1
 Tm  Tm4  1  0.50000  0.37299  0.15022  1
