CIF file written using JARVIS-Tools package.
data_SbSeBr
_symmetry_space_group_name_H-M  'Pnma'
_cell_length_a       4.05377
_cell_length_b       8.43319
_cell_length_c       10.359
_cell_angle_alpha    90
_cell_angle_beta     90
_cell_angle_gamma    90

_symmetry_Int_Tables_number  62
_chemical_formula_structural  SbSeBr
_chemical_formula_sum  Sb4Se4Br4
_cell_volume  354.13355288934173
_cell_formula_units_Z  4
loop_
  _symmetry_equiv_pos_site_id
 _symmetry_equiv_pos_as_xyz
 1  'x, y, z'
loop_
 _atom_site_type_symbol
 _atom_site_label
 _atom_site_symmetry_multiplicity
 _atom_site_fract_x
 _atom_site_fract_y
 _atom_site_fract_z
 _atom_site_fract_occupancy
 Br  Br1  1  0.25000  0.52057  0.18264  1
 Br  Br2  1  0.75000  0.47943  0.81736  1
 Br  Br3  1  0.75000  0.97943  0.68264  1
 Br  Br4  1  0.25000  0.02057  0.31736  1
 Sb  Sb1  1  0.25000  0.61987  0.63563  1
 Sb  Sb2  1  0.75000  0.38013  0.36437  1
 Sb  Sb3  1  0.75000  0.88013  0.13563  1
 Sb  Sb4  1  0.25000  0.11987  0.86437  1
 Se  Se1  1  0.25000  0.82211  0.95356  1
 Se  Se2  1  0.75000  0.17789  0.04644  1
 Se  Se3  1  0.75000  0.67789  0.45356  1
 Se  Se4  1  0.25000  0.32211  0.54644  1
