CIF file written using JARVIS-Tools package.
data_Ni2Mo3O8
_symmetry_space_group_name_H-M  'P6_3mc'
_cell_length_a       5.78286
_cell_length_b       5.78286
_cell_length_c       9.74786
_cell_angle_alpha    90
_cell_angle_beta     90
_cell_angle_gamma    120

_symmetry_Int_Tables_number  186
_chemical_formula_structural  Ni2Mo3O8
_chemical_formula_sum  Ni4Mo6O6
_cell_volume  282.30940294379786
_cell_formula_units_Z  2
loop_
  _symmetry_equiv_pos_site_id
 _symmetry_equiv_pos_as_xyz
 1  'x, y, z'
loop_
 _atom_site_type_symbol
 _atom_site_label
 _atom_site_symmetry_multiplicity
 _atom_site_fract_x
 _atom_site_fract_y
 _atom_site_fract_z
 _atom_site_fract_occupancy
 Mo  Mo1  1  0.85330  0.70660  0.64020  1
 Mo  Mo2  1  0.14670  0.29340  0.14020  1
 Mo  Mo3  1  0.85330  0.14670  0.64020  1
 Mo  Mo4  1  0.14670  0.85330  0.14020  1
 Mo  Mo5  1  0.70660  0.85330  0.14020  1
 Mo  Mo6  1  0.29340  0.14670  0.64020  1
 Ni  Ni1  1  0.66667  0.33333  0.94195  1
 Ni  Ni2  1  0.66667  0.33333  0.37528  1
 Ni  Ni3  1  0.33333  0.66667  0.44195  1
 Ni  Ni4  1  0.33333  0.66667  0.87528  1
 O  O1  1  0.02464  0.51232  0.01971  1
 O  O2  1  0.51232  0.02464  0.51971  1
 O  O3  1  0.51232  0.48768  0.51971  1
 O  O4  1  0.66667  0.33333  0.74460  1
 O  O5  1  0.97536  0.48768  0.51971  1
 O  O6  1  0.48768  0.51232  0.01971  1
 O  O7  1  0.48768  0.97536  0.01971  1
 O  O8  1  0.00000  0.00000  0.99574  1
 O  O9  1  0.65880  0.82940  0.75710  1
 O  O10  1  0.82940  0.17060  0.25710  1
 O  O11  1  0.34120  0.17060  0.25710  1
 O  O12  1  0.17060  0.34120  0.75710  1
 O  O13  1  0.00000  0.00000  0.49574  1
 O  O14  1  0.82940  0.65880  0.25710  1
 O  O15  1  0.17060  0.82940  0.75710  1
 O  O16  1  0.33333  0.66667  0.24460  1
