CIF file written using JARVIS-Tools package.
data_Ge2Cl
_symmetry_space_group_name_H-M  'Cm'
_cell_length_a       5.41997
_cell_length_b       4.14118
_cell_length_c       4.9624
_cell_angle_alpha    53.1929
_cell_angle_beta     62.7622
_cell_angle_gamma    68.71

_symmetry_Int_Tables_number  8
_chemical_formula_structural  Ge2Cl
_chemical_formula_sum  Ge2Cl
_cell_volume  78.66948807989009
_cell_formula_units_Z  1
loop_
  _symmetry_equiv_pos_site_id
 _symmetry_equiv_pos_as_xyz
 1  'x, y, z'
loop_
 _atom_site_type_symbol
 _atom_site_label
 _atom_site_symmetry_multiplicity
 _atom_site_fract_x
 _atom_site_fract_y
 _atom_site_fract_z
 _atom_site_fract_occupancy
 Cl  Cl1  1  0.03173  0.83438  0.29391  1
 Ge  Ge1  1  0.53348  0.49108  0.21410  1
 Ge  Ge2  1  0.51595  0.72719  0.60480  1
