CIF file written using JARVIS-Tools package.
data_GeCl
_symmetry_space_group_name_H-M  'P4/nmm'
_cell_length_a       3.43895
_cell_length_b       3.43895
_cell_length_c       7.33304
_cell_angle_alpha    90
_cell_angle_beta     90
_cell_angle_gamma    90

_symmetry_Int_Tables_number  129
_chemical_formula_structural  GeCl
_chemical_formula_sum  Ge2Cl2
_cell_volume  86.72349282425569
_cell_formula_units_Z  2
loop_
  _symmetry_equiv_pos_site_id
 _symmetry_equiv_pos_as_xyz
 1  'x, y, z'
loop_
 _atom_site_type_symbol
 _atom_site_label
 _atom_site_symmetry_multiplicity
 _atom_site_fract_x
 _atom_site_fract_y
 _atom_site_fract_z
 _atom_site_fract_occupancy
 Cl  Cl1  1  0.00000  0.00000  0.31821  1
 Cl  Cl2  1  0.50000  0.50000  0.68179  1
 Ge  Ge1  1  0.00000  0.00000  0.89340  1
 Ge  Ge2  1  0.50000  0.50000  0.10660  1
