CIF file written using JARVIS-Tools package.
data_SrLaMgRuO6
_symmetry_space_group_name_H-M  'Pc'
_cell_length_a       5.60958
_cell_length_b       5.59443
_cell_length_c       9.67382
_cell_angle_alpha    54.7586
_cell_angle_beta     90
_cell_angle_gamma    90

_symmetry_Int_Tables_number  7
_chemical_formula_structural  SrLaMgRuO6
_chemical_formula_sum  Sr2La2Mg2Ru2O2
_cell_volume  247.94835448794532
_cell_formula_units_Z  2
loop_
  _symmetry_equiv_pos_site_id
 _symmetry_equiv_pos_as_xyz
 1  'x, y, z'
loop_
 _atom_site_type_symbol
 _atom_site_label
 _atom_site_symmetry_multiplicity
 _atom_site_fract_x
 _atom_site_fract_y
 _atom_site_fract_z
 _atom_site_fract_occupancy
 La  La1  1  0.28481  0.75629  0.75092  1
 La  La2  1  0.71519  0.75629  0.25092  1
 Mg  Mg1  1  0.75330  0.49994  0.00049  1
 Mg  Mg2  1  0.24670  0.49994  0.50049  1
 O  O1  1  0.75962  0.31936  0.25581  1
 O  O2  1  0.95754  0.75786  0.46203  1
 O  O3  1  0.73464  0.69608  0.74405  1
 O  O4  1  0.53357  0.23913  0.53274  1
 O  O5  1  0.46643  0.23913  0.03274  1
 O  O6  1  0.04246  0.75786  0.96203  1
 O  O7  1  0.96811  0.16737  0.03804  1
 O  O8  1  0.26536  0.69608  0.24405  1
 O  O9  1  0.52223  0.81856  0.96557  1
 O  O10  1  0.03189  0.16737  0.53804  1
 O  O11  1  0.24038  0.31936  0.75581  1
 O  O12  1  0.47777  0.81856  0.46557  1
 Ru  Ru1  1  0.24910  -0.00014  0.00017  1
 Ru  Ru2  1  0.75090  -0.00014  0.50017  1
 Sr  Sr1  1  0.77757  0.24556  0.75019  1
 Sr  Sr2  1  0.22243  0.24556  0.25019  1
