CIF file written using JARVIS-Tools package.
data_SrCaMn2O6
_symmetry_space_group_name_H-M  'Pmc2_1'
_cell_length_a       5.36162
_cell_length_b       5.36265
_cell_length_c       7.57762
_cell_angle_alpha    90
_cell_angle_beta     90
_cell_angle_gamma    90

_symmetry_Int_Tables_number  26
_chemical_formula_structural  SrCaMn2O6
_chemical_formula_sum  Sr2Ca2Mn4O2
_cell_volume  217.8752431736134
_cell_formula_units_Z  2
loop_
  _symmetry_equiv_pos_site_id
 _symmetry_equiv_pos_as_xyz
 1  'x, y, z'
loop_
 _atom_site_type_symbol
 _atom_site_label
 _atom_site_symmetry_multiplicity
 _atom_site_fract_x
 _atom_site_fract_y
 _atom_site_fract_z
 _atom_site_fract_occupancy
 Ca  Ca1  1  0.96508  0.25603  0.00000  1
 Ca  Ca2  1  0.46508  0.74397  0.00000  1
 Mn  Mn1  1  0.49262  0.24655  0.75535  1
 Mn  Mn2  1  -0.00738  0.75345  0.24465  1
 Mn  Mn3  1  0.49262  0.24655  0.24465  1
 Mn  Mn4  1  -0.00738  0.75345  0.75535  1
 O  O1  1  0.51741  0.18201  0.00000  1
 O  O2  1  0.22213  0.46797  0.78875  1
 O  O3  1  0.50290  0.29404  0.50000  1
 O  O4  1  0.78307  0.03049  0.26985  1
 O  O5  1  0.28307  0.96951  0.73015  1
 O  O6  1  0.72213  0.53203  0.21125  1
 O  O7  1  0.00290  0.70596  0.50000  1
 O  O8  1  0.22213  0.46797  0.21125  1
 O  O9  1  0.72213  0.53203  0.78875  1
 O  O10  1  0.78307  0.03049  0.73015  1
 O  O11  1  0.01741  0.81799  0.00000  1
 O  O12  1  0.28307  0.96951  0.26985  1
 Sr  Sr1  1  0.51896  0.75210  0.50000  1
 Sr  Sr2  1  0.01896  0.24790  0.50000  1
