CIF file written using JARVIS-Tools package.
data_HCNO3
_symmetry_space_group_name_H-M  'Pm'
_cell_length_a       4.45347
_cell_length_b       4.80944
_cell_length_c       5.51956
_cell_angle_alpha    76.1999
_cell_angle_beta     89.9829
_cell_angle_gamma    89.9841

_symmetry_Int_Tables_number  6
_chemical_formula_structural  HCNO3
_chemical_formula_sum  H2C2N2O6
_cell_volume  114.80955488633208
_cell_formula_units_Z  2
loop_
  _symmetry_equiv_pos_site_id
 _symmetry_equiv_pos_as_xyz
 1  'x, y, z'
loop_
 _atom_site_type_symbol
 _atom_site_label
 _atom_site_symmetry_multiplicity
 _atom_site_fract_x
 _atom_site_fract_y
 _atom_site_fract_z
 _atom_site_fract_occupancy
 C  C1  1  0.10144  0.72741  0.25979  1
 C  C2  1  0.10144  0.22741  0.75979  1
 H  H1  1  0.60146  0.53958  0.28612  1
 H  H2  1  0.60146  0.03958  0.78612  1
 N  N1  1  0.60146  0.74852  0.17463  1
 N  N2  1  0.60146  0.24852  0.67463  1
 O  O1  1  0.10153  0.48050  0.24248  1
 O  O2  1  0.10153  0.98050  0.74248  1
 O  O3  1  0.85391  0.38989  0.76916  1
 O  O4  1  0.85391  0.88989  0.26916  1
 O  O5  1  0.34885  0.88991  0.26911  1
 O  O6  1  0.34885  0.38991  0.76911  1
