CIF file written using JARVIS-Tools package.
data_SIO
_symmetry_space_group_name_H-M  'P4mm'
_cell_length_a       3.07806
_cell_length_b       3.07806
_cell_length_c       8.39775
_cell_angle_alpha    90
_cell_angle_beta     90
_cell_angle_gamma    90

_symmetry_Int_Tables_number  99
_chemical_formula_structural  SIO
_chemical_formula_sum  SIO
_cell_volume  79.56415726841176
_cell_formula_units_Z  1
loop_
  _symmetry_equiv_pos_site_id
 _symmetry_equiv_pos_as_xyz
 1  'x, y, z'
loop_
 _atom_site_type_symbol
 _atom_site_label
 _atom_site_symmetry_multiplicity
 _atom_site_fract_x
 _atom_site_fract_y
 _atom_site_fract_z
 _atom_site_fract_occupancy
 I  I1  1  0.00000  0.00000  0.37265  1
 O  O1  1  0.00000  0.00000  -0.02909  1
 S  S1  1  0.00000  0.00000  0.79348  1
