CIF file written using JARVIS-Tools package.
data_SbIO
_symmetry_space_group_name_H-M  'P4/nmm'
_cell_length_a       3.92346
_cell_length_b       3.92346
_cell_length_c       9.06852
_cell_angle_alpha    90
_cell_angle_beta     90
_cell_angle_gamma    90

_symmetry_Int_Tables_number  129
_chemical_formula_structural  SbIO
_chemical_formula_sum  Sb2I2O2
_cell_volume  139.596823205907
_cell_formula_units_Z  2
loop_
  _symmetry_equiv_pos_site_id
 _symmetry_equiv_pos_as_xyz
 1  'x, y, z'
loop_
 _atom_site_type_symbol
 _atom_site_label
 _atom_site_symmetry_multiplicity
 _atom_site_fract_x
 _atom_site_fract_y
 _atom_site_fract_z
 _atom_site_fract_occupancy
 I  I1  1  0.00000  0.50000  0.66660  1
 I  I2  1  0.50000  0.00000  0.33340  1
 O  O1  1  0.50000  0.50000  0.00000  1
 O  O2  1  0.00000  0.00000  0.00000  1
 Sb  Sb1  1  0.50000  0.00000  0.86863  1
 Sb  Sb2  1  0.00000  0.50000  0.13137  1
