CIF file written using JARVIS-Tools package.
data_Sr3Sb3N5
_symmetry_space_group_name_H-M  'P-1'
_cell_length_a       6.12664
_cell_length_b       7.47988
_cell_length_c       10.3239
_cell_angle_alpha    100.924
_cell_angle_beta     100.775
_cell_angle_gamma    95.1251

_symmetry_Int_Tables_number  2
_chemical_formula_structural  Sr3Sb3N5
_chemical_formula_sum  Sr6Sb6N0
_cell_volume  452.5108614164531
_cell_formula_units_Z  2
loop_
  _symmetry_equiv_pos_site_id
 _symmetry_equiv_pos_as_xyz
 1  'x, y, z'
loop_
 _atom_site_type_symbol
 _atom_site_label
 _atom_site_symmetry_multiplicity
 _atom_site_fract_x
 _atom_site_fract_y
 _atom_site_fract_z
 _atom_site_fract_occupancy
 N  N1  1  0.64803  0.22354  0.02217  1
 N  N2  1  0.44436  0.87599  0.70557  1
 N  N3  1  0.11785  0.36175  0.93707  1
 N  N4  1  0.88215  0.63825  0.06293  1
 N  N5  1  0.29014  0.31475  0.51870  1
 N  N6  1  0.70986  0.68525  0.48130  1
 N  N7  1  0.00024  0.07493  0.21118  1
 N  N8  1  -0.00024  0.92507  0.78882  1
 N  N9  1  0.35197  0.77646  0.97783  1
 N  N10  1  0.55564  0.12401  0.29443  1
 Sb  Sb1  1  0.73379  0.91888  0.62398  1
 Sb  Sb2  1  0.77954  0.39825  0.91672  1
 Sb  Sb3  1  0.20009  0.71760  0.77357  1
 Sb  Sb4  1  0.26621  0.08112  0.37602  1
 Sb  Sb5  1  0.79991  0.28240  0.22643  1
 Sb  Sb6  1  0.22046  0.60175  0.08328  1
 Sr  Sr1  1  0.26977  0.18822  0.73335  1
 Sr  Sr2  1  0.73023  0.81178  0.26665  1
 Sr  Sr3  1  0.26570  0.10868  0.05271  1
 Sr  Sr4  1  0.73430  0.89132  0.94729  1
 Sr  Sr5  1  0.27309  0.62548  0.46234  1
 Sr  Sr6  1  0.72691  0.37452  0.53766  1
