CIF file written using JARVIS-Tools package.
data_KTe
_symmetry_space_group_name_H-M  'P4/nmm'
_cell_length_a       4.81524
_cell_length_b       4.81524
_cell_length_c       6.98902
_cell_angle_alpha    90
_cell_angle_beta     90
_cell_angle_gamma    90

_symmetry_Int_Tables_number  129
_chemical_formula_structural  KTe
_chemical_formula_sum  K2Te2
_cell_volume  162.0508947769842
_cell_formula_units_Z  2
loop_
  _symmetry_equiv_pos_site_id
 _symmetry_equiv_pos_as_xyz
 1  'x, y, z'
loop_
 _atom_site_type_symbol
 _atom_site_label
 _atom_site_symmetry_multiplicity
 _atom_site_fract_x
 _atom_site_fract_y
 _atom_site_fract_z
 _atom_site_fract_occupancy
 K  K1  1  0.00000  0.00000  0.30661  1
 K  K2  1  0.50000  0.50000  0.69339  1
 Te  Te1  1  0.00000  0.00000  0.82266  1
 Te  Te2  1  0.50000  0.50000  0.17734  1
