CIF file written using JARVIS-Tools package.
data_LaSe
_symmetry_space_group_name_H-M  'Immm'
_cell_length_a       4.32348
_cell_length_b       6.10259
_cell_length_c       4.31558
_cell_angle_alpha    44.9853
_cell_angle_beta     120.034
_cell_angle_gamma    135.062

_symmetry_Int_Tables_number  71
_chemical_formula_structural  LaSe
_chemical_formula_sum  LaSe
_cell_volume  56.85567148431987
_cell_formula_units_Z  1
loop_
  _symmetry_equiv_pos_site_id
 _symmetry_equiv_pos_as_xyz
 1  'x, y, z'
loop_
 _atom_site_type_symbol
 _atom_site_label
 _atom_site_symmetry_multiplicity
 _atom_site_fract_x
 _atom_site_fract_y
 _atom_site_fract_z
 _atom_site_fract_occupancy
 La  La1  1  0.68946  0.15390  0.06800  1
 Se  Se1  1  0.68944  0.65392  0.06793  1
