CIF file written using JARVIS-Tools package.
data_ZrH2C3O4
_symmetry_space_group_name_H-M  'P1'
_cell_length_a       3.93559
_cell_length_b       4.27329
_cell_length_c       6.07743
_cell_angle_alpha    85.8943
_cell_angle_beta     85.0836
_cell_angle_gamma    70.1522

_symmetry_Int_Tables_number  1
_chemical_formula_structural  ZrH2C3O4
_chemical_formula_sum  ZrH2C3O4
_cell_volume  95.68599947334584
_cell_formula_units_Z  1
loop_
  _symmetry_equiv_pos_site_id
 _symmetry_equiv_pos_as_xyz
 1  'x, y, z'
loop_
 _atom_site_type_symbol
 _atom_site_label
 _atom_site_symmetry_multiplicity
 _atom_site_fract_x
 _atom_site_fract_y
 _atom_site_fract_z
 _atom_site_fract_occupancy
 C  C1  1  0.62929  0.60514  0.69480  1
 C  C2  1  0.48846  0.71543  0.93075  1
 C  C3  1  0.65786  0.50643  0.12813  1
 H  H1  1  0.20145  0.73646  0.94817  1
 H  H2  1  0.50994  0.96130  0.94488  1
 O  O1  1  0.33328  0.80109  0.55565  1
 O  O2  1  0.66062  0.26824  0.66361  1
 O  O3  1  0.55822  0.26512  0.21060  1
 O  O4  1  0.89259  0.58678  0.22240  1
 Zr  Zr1  1  0.16399  0.32761  0.50668  1
