CIF file written using JARVIS-Tools package.
data_Li2I
_symmetry_space_group_name_H-M  'Pm'
_cell_length_a       6.58088
_cell_length_b       3.98727
_cell_length_c       4.27044
_cell_angle_alpha    90
_cell_angle_beta     90.2517
_cell_angle_gamma    90

_symmetry_Int_Tables_number  6
_chemical_formula_structural  Li2I
_chemical_formula_sum  Li2I
_cell_volume  112.05409721174732
_cell_formula_units_Z  1
loop_
  _symmetry_equiv_pos_site_id
 _symmetry_equiv_pos_as_xyz
 1  'x, y, z'
loop_
 _atom_site_type_symbol
 _atom_site_label
 _atom_site_symmetry_multiplicity
 _atom_site_fract_x
 _atom_site_fract_y
 _atom_site_fract_z
 _atom_site_fract_occupancy
 I  I1  1  0.41120  0.00000  -0.03043  1
 Li  Li1  1  -0.19090  0.00000  -0.03742  1
 Li  Li2  1  0.17969  0.00000  0.46785  1
