CIF file written using JARVIS-Tools package.
data_Li2I
_symmetry_space_group_name_H-M  'Pmmm'
_cell_length_a       4.09809
_cell_length_b       4.3328
_cell_length_c       4.37539
_cell_angle_alpha    89.229
_cell_angle_beta     90.6677
_cell_angle_gamma    89.6949

_symmetry_Int_Tables_number  47
_chemical_formula_structural  Li2I
_chemical_formula_sum  Li2I
_cell_volume  77.67683898114596
_cell_formula_units_Z  1
loop_
  _symmetry_equiv_pos_site_id
 _symmetry_equiv_pos_as_xyz
 1  'x, y, z'
loop_
 _atom_site_type_symbol
 _atom_site_label
 _atom_site_symmetry_multiplicity
 _atom_site_fract_x
 _atom_site_fract_y
 _atom_site_fract_z
 _atom_site_fract_occupancy
 I  I1  1  0.96945  0.17236  0.04041  1
 Li  Li1  1  0.47016  0.17251  0.54035  1
 Li  Li2  1  0.46877  0.67254  0.04047  1
