CIF file written using JARVIS-Tools package.
data_LiPS
_symmetry_space_group_name_H-M  'Pm'
_cell_length_a       5.03642
_cell_length_b       4.68744
_cell_length_c       3.22537
_cell_angle_alpha    90
_cell_angle_beta     90
_cell_angle_gamma    65.634

_symmetry_Int_Tables_number  6
_chemical_formula_structural  LiPS
_chemical_formula_sum  LiPS
_cell_volume  69.36195265673221
_cell_formula_units_Z  1
loop_
  _symmetry_equiv_pos_site_id
 _symmetry_equiv_pos_as_xyz
 1  'x, y, z'
loop_
 _atom_site_type_symbol
 _atom_site_label
 _atom_site_symmetry_multiplicity
 _atom_site_fract_x
 _atom_site_fract_y
 _atom_site_fract_z
 _atom_site_fract_occupancy
 Li  Li1  1  -0.10451  -0.07879  0.00000  1
 P  P1  1  0.37346  -0.01868  0.00000  1
 S  S1  1  0.00308  0.36950  0.00000  1
