CIF file written using JARVIS-Tools package.
data_LiCoP2O7
_symmetry_space_group_name_H-M  'P-1'
_cell_length_a       6.13521
_cell_length_b       6.17127
_cell_length_c       6.62201
_cell_angle_alpha    66.6803
_cell_angle_beta     85.4173
_cell_angle_gamma    81.8573

_symmetry_Int_Tables_number  2
_chemical_formula_structural  LiCoP2O7
_chemical_formula_sum  Li2Co2P4O4
_cell_volume  227.84132962380593
_cell_formula_units_Z  2
loop_
  _symmetry_equiv_pos_site_id
 _symmetry_equiv_pos_as_xyz
 1  'x, y, z'
loop_
 _atom_site_type_symbol
 _atom_site_label
 _atom_site_symmetry_multiplicity
 _atom_site_fract_x
 _atom_site_fract_y
 _atom_site_fract_z
 _atom_site_fract_occupancy
 Co  Co1  1  0.63748  0.08708  0.78899  1
 Co  Co2  1  0.36252  0.91292  0.21101  1
 Li  Li1  1  0.01604  0.71286  0.82238  1
 Li  Li2  1  0.98396  0.28714  0.17762  1
 O  O1  1  0.57687  0.39396  0.80457  1
 O  O2  1  0.42313  0.60604  0.19543  1
 O  O3  1  0.33353  0.04028  0.88363  1
 O  O4  1  0.38684  0.78657  0.52509  1
 O  O5  1  0.68087  0.77448  0.78814  1
 O  O6  1  0.31913  0.22552  0.21186  1
 O  O7  1  0.96205  0.60874  0.13707  1
 O  O8  1  0.03795  0.39126  0.86293  1
 O  O9  1  0.78800  0.63899  0.47767  1
 O  O10  1  0.95761  0.06203  0.74760  1
 O  O11  1  0.04239  0.93797  0.25240  1
 O  O12  1  0.61316  0.21343  0.47491  1
 O  O13  1  0.21200  0.36101  0.52233  1
 O  O14  1  0.66647  0.95972  0.11637  1
 P  P1  1  0.40427  0.34834  0.34534  1
 P  P2  1  0.12579  0.21773  0.76423  1
 P  P3  1  0.87421  0.78227  0.23577  1
 P  P4  1  0.59573  0.65166  0.65466  1
