CIF file written using JARVIS-Tools package.
data_SrLiP
_symmetry_space_group_name_H-M  'Pmmm'
_cell_length_a       4.74064
_cell_length_b       7.38626
_cell_length_c       3.65721
_cell_angle_alpha    90
_cell_angle_beta     90
_cell_angle_gamma    52.3725

_symmetry_Int_Tables_number  47
_chemical_formula_structural  SrLiP
_chemical_formula_sum  SrLiP
_cell_volume  101.42251139452195
_cell_formula_units_Z  1
loop_
  _symmetry_equiv_pos_site_id
 _symmetry_equiv_pos_as_xyz
 1  'x, y, z'
loop_
 _atom_site_type_symbol
 _atom_site_label
 _atom_site_symmetry_multiplicity
 _atom_site_fract_x
 _atom_site_fract_y
 _atom_site_fract_z
 _atom_site_fract_occupancy
 Li  Li1  1  -0.07567  -0.07609  0.00000  1
 P  P1  1  0.42423  -0.07594  0.00000  1
 Sr  Sr1  1  -0.07653  0.42405  0.00000  1
