CIF file written using JARVIS-Tools package.
data_MgO2
_symmetry_space_group_name_H-M  'Pmmm'
_cell_length_a       3.17583
_cell_length_b       3.42789
_cell_length_c       3.62542
_cell_angle_alpha    90
_cell_angle_beta     89.9982
_cell_angle_gamma    90

_symmetry_Int_Tables_number  47
_chemical_formula_structural  MgO2
_chemical_formula_sum  MgO2
_cell_volume  39.46775742038334
_cell_formula_units_Z  1
loop_
  _symmetry_equiv_pos_site_id
 _symmetry_equiv_pos_as_xyz
 1  'x, y, z'
loop_
 _atom_site_type_symbol
 _atom_site_label
 _atom_site_symmetry_multiplicity
 _atom_site_fract_x
 _atom_site_fract_y
 _atom_site_fract_z
 _atom_site_fract_occupancy
 Mg  Mg1  1  0.46666  0.00000  0.13328  1
 O  O1  1  -0.03336  0.00000  -0.56437  1
 O  O2  1  -0.03330  0.00000  -0.16891  1
