CIF file written using JARVIS-Tools package.
data_MgO
_symmetry_space_group_name_H-M  'I4/mmm'
_cell_length_a       4.20448
_cell_length_b       2.98342
_cell_length_c       2.98224
_cell_angle_alpha    60.2089
_cell_angle_beta     45.2384
_cell_angle_gamma    45.13

_symmetry_Int_Tables_number  139
_chemical_formula_structural  MgO
_chemical_formula_sum  MgO
_cell_volume  18.824433532018027
_cell_formula_units_Z  1
loop_
  _symmetry_equiv_pos_site_id
 _symmetry_equiv_pos_as_xyz
 1  'x, y, z'
loop_
 _atom_site_type_symbol
 _atom_site_label
 _atom_site_symmetry_multiplicity
 _atom_site_fract_x
 _atom_site_fract_y
 _atom_site_fract_z
 _atom_site_fract_occupancy
 Mg  Mg1  1  0.04446  -0.03419  0.00648  1
 O  O1  1  0.54446  0.96579  0.00651  1
