CIF file written using JARVIS-Tools package.
data_TePbO2
_symmetry_space_group_name_H-M  'P4mm'
_cell_length_a       3.61135
_cell_length_b       3.61135
_cell_length_c       5.53204
_cell_angle_alpha    90
_cell_angle_beta     90
_cell_angle_gamma    90

_symmetry_Int_Tables_number  99
_chemical_formula_structural  TePbO2
_chemical_formula_sum  TePbO2
_cell_volume  72.1481593557842
_cell_formula_units_Z  1
loop_
  _symmetry_equiv_pos_site_id
 _symmetry_equiv_pos_as_xyz
 1  'x, y, z'
loop_
 _atom_site_type_symbol
 _atom_site_label
 _atom_site_symmetry_multiplicity
 _atom_site_fract_x
 _atom_site_fract_y
 _atom_site_fract_z
 _atom_site_fract_occupancy
 O  O1  1  0.00000  0.00000  0.58359  1
 O  O2  1  0.50000  0.50000  0.89105  1
 Pb  Pb1  1  0.00000  0.00000  0.01285  1
 Te  Te1  1  0.50000  0.50000  0.52251  1
