CIF file written using JARVIS-Tools package.
data_Pb2S
_symmetry_space_group_name_H-M  'Pmmm'
_cell_length_a       3.71474
_cell_length_b       3.41832
_cell_length_c       7.52819
_cell_angle_alpha    90
_cell_angle_beta     90
_cell_angle_gamma    90

_symmetry_Int_Tables_number  47
_chemical_formula_structural  Pb2S
_chemical_formula_sum  Pb2S
_cell_volume  95.59422039520864
_cell_formula_units_Z  1
loop_
  _symmetry_equiv_pos_site_id
 _symmetry_equiv_pos_as_xyz
 1  'x, y, z'
loop_
 _atom_site_type_symbol
 _atom_site_label
 _atom_site_symmetry_multiplicity
 _atom_site_fract_x
 _atom_site_fract_y
 _atom_site_fract_z
 _atom_site_fract_occupancy
 Pb  Pb1  1  -0.03333  0.00000  0.72995  1
 Pb  Pb2  1  -0.03333  0.00000  0.27005  1
 S  S1  1  0.46666  0.00000  0.00000  1
