CIF file written using JARVIS-Tools package.
data_CaAuN
_symmetry_space_group_name_H-M  'Pmmm'
_cell_length_a       6.12814
_cell_length_b       4.63992
_cell_length_c       3.97197
_cell_angle_alpha    90
_cell_angle_beta     90
_cell_angle_gamma    40.9099

_symmetry_Int_Tables_number  47
_chemical_formula_structural  CaAuN
_chemical_formula_sum  CaAuN
_cell_volume  73.96088111935101
_cell_formula_units_Z  1
loop_
  _symmetry_equiv_pos_site_id
 _symmetry_equiv_pos_as_xyz
 1  'x, y, z'
loop_
 _atom_site_type_symbol
 _atom_site_label
 _atom_site_symmetry_multiplicity
 _atom_site_fract_x
 _atom_site_fract_y
 _atom_site_fract_z
 _atom_site_fract_occupancy
 Au  Au1  1  0.45560  -0.08698  0.00000  1
 Ca  Ca1  1  -0.04438  -0.08708  0.00000  1
 N  N1  1  -0.04439  0.41291  0.00000  1
