CIF file written using JARVIS-Tools package.
data_Li2FeF5
_symmetry_space_group_name_H-M  'P-1'
_cell_length_a       5.05321
_cell_length_b       5.44663
_cell_length_c       7.15184
_cell_angle_alpha    108.139
_cell_angle_beta     88.658
_cell_angle_gamma    119.719

_symmetry_Int_Tables_number  2
_chemical_formula_structural  Li2FeF5
_chemical_formula_sum  Li4Fe2F0
_cell_volume  160.39762579916683
_cell_formula_units_Z  2
loop_
  _symmetry_equiv_pos_site_id
 _symmetry_equiv_pos_as_xyz
 1  'x, y, z'
loop_
 _atom_site_type_symbol
 _atom_site_label
 _atom_site_symmetry_multiplicity
 _atom_site_fract_x
 _atom_site_fract_y
 _atom_site_fract_z
 _atom_site_fract_occupancy
 F  F1  1  0.56292  0.40672  0.16094  1
 F  F2  1  0.86765  0.36426  0.65004  1
 F  F3  1  0.23984  0.17942  0.45027  1
 F  F4  1  0.12818  0.63079  0.34940  1
 F  F5  1  0.29361  0.01577  0.75006  1
 F  F6  1  0.75600  0.81566  0.54913  1
 F  F7  1  0.92490  0.17321  0.93536  1
 F  F8  1  0.07105  0.82189  0.06408  1
 F  F9  1  0.43301  0.58835  0.83845  1
 F  F10  1  0.70224  0.97928  0.24935  1
 Fe  Fe1  1  0.89790  0.78408  0.29303  1
 Fe  Fe2  1  0.09798  0.21100  0.70639  1
 Li  Li1  1  0.49792  0.99754  0.49973  1
 Li  Li2  1  0.14783  0.30127  0.19043  1
 Li  Li3  1  0.84816  0.69387  0.80900  1
 Li  Li4  1  0.49798  -0.00248  -0.00028  1
