CIF file written using JARVIS-Tools package.
data_BaYF2
_symmetry_space_group_name_H-M  'P4mm'
_cell_length_a       3.5511
_cell_length_b       3.5511
_cell_length_c       6.85505
_cell_angle_alpha    90
_cell_angle_beta     90
_cell_angle_gamma    90

_symmetry_Int_Tables_number  99
_chemical_formula_structural  BaYF2
_chemical_formula_sum  BaYF2
_cell_volume  86.44432532857473
_cell_formula_units_Z  1
loop_
  _symmetry_equiv_pos_site_id
 _symmetry_equiv_pos_as_xyz
 1  'x, y, z'
loop_
 _atom_site_type_symbol
 _atom_site_label
 _atom_site_symmetry_multiplicity
 _atom_site_fract_x
 _atom_site_fract_y
 _atom_site_fract_z
 _atom_site_fract_occupancy
 Ba  Ba1  1  0.50000  0.50000  0.53134  1
 F  F1  1  0.00000  0.00000  0.34672  1
 F  F2  1  0.50000  0.50000  0.12081  1
 Y  Y1  1  0.00000  0.00000  0.01113  1
