CIF file written using JARVIS-Tools package.
data_Ba2O
_symmetry_space_group_name_H-M  'Pmmm'
_cell_length_a       3.71795
_cell_length_b       4.22143
_cell_length_c       7.7146
_cell_angle_alpha    90
_cell_angle_beta     90
_cell_angle_gamma    90

_symmetry_Int_Tables_number  47
_chemical_formula_structural  Ba2O
_chemical_formula_sum  Ba2O
_cell_volume  121.08129189769096
_cell_formula_units_Z  1
loop_
  _symmetry_equiv_pos_site_id
 _symmetry_equiv_pos_as_xyz
 1  'x, y, z'
loop_
 _atom_site_type_symbol
 _atom_site_label
 _atom_site_symmetry_multiplicity
 _atom_site_fract_x
 _atom_site_fract_y
 _atom_site_fract_z
 _atom_site_fract_occupancy
 Ba  Ba1  1  -0.03334  0.00000  0.76898  1
 Ba  Ba2  1  -0.03334  0.00000  0.23102  1
 O  O1  1  0.46668  0.00000  0.00000  1
