CIF file written using JARVIS-Tools package.
data_BaP2
_symmetry_space_group_name_H-M  'P2_1/c'
_cell_length_a       12.2268
_cell_length_b       6.43376
_cell_length_c       7.7759
_cell_angle_alpha    53.296
_cell_angle_beta     90
_cell_angle_gamma    90

_symmetry_Int_Tables_number  14
_chemical_formula_structural  BaP2
_chemical_formula_sum  Ba6P2
_cell_volume  490.40977787188746
_cell_formula_units_Z  6
loop_
  _symmetry_equiv_pos_site_id
 _symmetry_equiv_pos_as_xyz
 1  'x, y, z'
loop_
 _atom_site_type_symbol
 _atom_site_label
 _atom_site_symmetry_multiplicity
 _atom_site_fract_x
 _atom_site_fract_y
 _atom_site_fract_z
 _atom_site_fract_occupancy
 Ba  Ba1  1  0.83889  0.22734  0.66718  1
 Ba  Ba2  1  0.33889  0.77266  0.83282  1
 Ba  Ba3  1  0.16111  0.77266  0.33282  1
 Ba  Ba4  1  0.66111  0.22734  0.16718  1
 Ba  Ba5  1  0.50000  0.50000  0.50000  1
 Ba  Ba6  1  0.00000  0.50000  0.00000  1
 P  P1  1  0.60652  0.93475  0.69609  1
 P  P2  1  0.10652  0.06525  0.80391  1
 P  P3  1  0.29611  0.32343  0.34649  1
 P  P4  1  0.89348  0.93475  0.19609  1
 P  P5  1  0.39348  0.06525  0.30391  1
 P  P6  1  0.62598  0.81913  0.03490  1
 P  P7  1  0.12598  0.18087  0.46510  1
 P  P8  1  0.87402  0.81913  0.53490  1
 P  P9  1  0.70389  0.67657  0.65351  1
 P  P10  1  0.20389  0.32343  0.84649  1
 P  P11  1  0.37402  0.18087  0.96510  1
 P  P12  1  0.79611  0.67657  0.15351  1
