CIF file written using JARVIS-Tools package.
data_AgAsS
_symmetry_space_group_name_H-M  'Pm'
_cell_length_a       5.89383
_cell_length_b       4.20494
_cell_length_c       2.88954
_cell_angle_alpha    90
_cell_angle_beta     90
_cell_angle_gamma    114.362

_symmetry_Int_Tables_number  6
_chemical_formula_structural  AgAsS
_chemical_formula_sum  AgAsS
_cell_volume  65.23528445144176
_cell_formula_units_Z  1
loop_
  _symmetry_equiv_pos_site_id
 _symmetry_equiv_pos_as_xyz
 1  'x, y, z'
loop_
 _atom_site_type_symbol
 _atom_site_label
 _atom_site_symmetry_multiplicity
 _atom_site_fract_x
 _atom_site_fract_y
 _atom_site_fract_z
 _atom_site_fract_occupancy
 Ag  Ag1  1  0.33949  0.00311  0.00000  1
 As  As1  1  0.00730  0.24190  0.00000  1
 S  S1  1  0.65321  0.75498  0.00000  1
