CIF file written using JARVIS-Tools package.
data_GaBiO2
_symmetry_space_group_name_H-M  'R-3m'
_cell_length_a       7.00923
_cell_length_b       7.00923
_cell_length_c       7.00922
_cell_angle_alpha    29.6414
_cell_angle_beta     29.6414
_cell_angle_gamma    29.6415

_symmetry_Int_Tables_number  166
_chemical_formula_structural  GaBiO2
_chemical_formula_sum  GaBiO2
_cell_volume  74.57004340241981
_cell_formula_units_Z  1
loop_
  _symmetry_equiv_pos_site_id
 _symmetry_equiv_pos_as_xyz
 1  'x, y, z'
loop_
 _atom_site_type_symbol
 _atom_site_label
 _atom_site_symmetry_multiplicity
 _atom_site_fract_x
 _atom_site_fract_y
 _atom_site_fract_z
 _atom_site_fract_occupancy
 Bi  Bi1  1  0.00000  0.00000  0.00000  1
 Ga  Ga1  1  0.50000  0.50000  0.50000  1
 O  O1  1  0.39592  0.39592  0.39591  1
 O  O2  1  0.60409  0.60409  0.60408  1
