CIF file written using JARVIS-Tools package.
data_Er2Fe12P7
_symmetry_space_group_name_H-M  'P-6'
_cell_length_a       3.63412
_cell_length_b       8.90735
_cell_length_c       8.9073
_cell_angle_alpha    120.001
_cell_angle_beta     90
_cell_angle_gamma    90

_symmetry_Int_Tables_number  174
_chemical_formula_structural  Er2Fe12P7
_chemical_formula_sum  Er2Fe2P7
_cell_volume  249.70125823719874
_cell_formula_units_Z  1
loop_
  _symmetry_equiv_pos_site_id
 _symmetry_equiv_pos_as_xyz
 1  'x, y, z'
loop_
 _atom_site_type_symbol
 _atom_site_label
 _atom_site_symmetry_multiplicity
 _atom_site_fract_x
 _atom_site_fract_y
 _atom_site_fract_z
 _atom_site_fract_occupancy
 Er  Er1  1  0.00000  0.66667  0.33333  1
 Er  Er2  1  0.50000  0.33333  0.66667  1
 Fe  Fe1  1  0.00000  0.84515  0.11889  1
 Fe  Fe2  1  0.00000  0.36858  0.94276  1
 Fe  Fe3  1  0.00000  0.05725  0.42582  1
 Fe  Fe4  1  0.00000  0.88111  0.72626  1
 Fe  Fe5  1  0.00000  0.27373  0.15484  1
 Fe  Fe6  1  0.00000  0.57418  0.63142  1
 Fe  Fe7  1  0.50000  0.95078  0.56653  1
 Fe  Fe8  1  0.50000  0.43347  0.38425  1
 Fe  Fe9  1  0.50000  0.11667  0.90554  1
 Fe  Fe10  1  0.50000  0.09444  0.21111  1
 Fe  Fe11  1  0.50000  0.78890  0.88334  1
 Fe  Fe12  1  0.50000  0.61575  0.04922  1
 P  P1  1  0.50000  0.40040  0.11130  1
 P  P2  1  0.50000  0.88870  0.28910  1
 P  P3  1  0.00000  0.11256  0.70076  1
 P  P4  1  0.00000  0.29924  0.41179  1
 P  P5  1  0.00000  0.58820  0.88744  1
 P  P6  1  0.50000  0.71090  0.59960  1
 P  P7  1  0.00000  -0.00001  0.00000  1
