CIF file written using JARVIS-Tools package.
data_I
_symmetry_space_group_name_H-M  'I4/mmm'
_cell_length_a       4.3891
_cell_length_b       4.39114
_cell_length_c       3.24271
_cell_angle_alpha    68.2931
_cell_angle_beta     68.3597
_cell_angle_gamma    43.3473

_symmetry_Int_Tables_number  139
_chemical_formula_structural  I
_chemical_formula_sum  I
_cell_volume  39.36602143333109
_cell_formula_units_Z  1
loop_
  _symmetry_equiv_pos_site_id
 _symmetry_equiv_pos_as_xyz
 1  'x, y, z'
loop_
 _atom_site_type_symbol
 _atom_site_label
 _atom_site_symmetry_multiplicity
 _atom_site_fract_x
 _atom_site_fract_y
 _atom_site_fract_z
 _atom_site_fract_occupancy
 I  I1  1  0.00000  0.00000  0.00000  1
