CIF file written using JARVIS-Tools package.
data_ZrTaFe4
_symmetry_space_group_name_H-M  'P-3m1'
_cell_length_a       4.81047
_cell_length_b       4.81038
_cell_length_c       7.9929
_cell_angle_alpha    89.9998
_cell_angle_beta     90
_cell_angle_gamma    60.001

_symmetry_Int_Tables_number  164
_chemical_formula_structural  ZrTaFe4
_chemical_formula_sum  Zr2Ta2Fe8
_cell_volume  160.17913141421477
_cell_formula_units_Z  2
loop_
  _symmetry_equiv_pos_site_id
 _symmetry_equiv_pos_as_xyz
 1  'x, y, z'
loop_
 _atom_site_type_symbol
 _atom_site_label
 _atom_site_symmetry_multiplicity
 _atom_site_fract_x
 _atom_site_fract_y
 _atom_site_fract_z
 _atom_site_fract_occupancy
 Fe  Fe1  1  0.00000  -0.00000  0.50000  1
 Fe  Fe2  1  0.00001  -0.00000  0.00000  1
 Fe  Fe3  1  0.83141  0.33720  0.74276  1
 Fe  Fe4  1  0.33719  0.83140  0.74277  1
 Fe  Fe5  1  0.83141  0.83141  0.74277  1
 Fe  Fe6  1  0.16860  0.66279  0.25724  1
 Fe  Fe7  1  0.66282  0.16859  0.25723  1
 Fe  Fe8  1  0.16860  0.16858  0.25723  1
 Ta  Ta1  1  0.33334  0.33332  0.55801  1
 Ta  Ta2  1  0.66667  0.66667  0.44199  1
 Zr  Zr1  1  0.66666  0.66669  0.06999  1
 Zr  Zr2  1  0.33335  0.33331  0.93002  1
