CIF file written using JARVIS-Tools package.
data_Zr2SiMo3
_symmetry_space_group_name_H-M  'P6_3/mmc'
_cell_length_a       5.27356
_cell_length_b       5.27356
_cell_length_c       8.73088
_cell_angle_alpha    90
_cell_angle_beta     90
_cell_angle_gamma    120

_symmetry_Int_Tables_number  194
_chemical_formula_structural  Zr2SiMo3
_chemical_formula_sum  Zr4Si2Mo6
_cell_volume  210.2793111331251
_cell_formula_units_Z  2
loop_
  _symmetry_equiv_pos_site_id
 _symmetry_equiv_pos_as_xyz
 1  'x, y, z'
loop_
 _atom_site_type_symbol
 _atom_site_label
 _atom_site_symmetry_multiplicity
 _atom_site_fract_x
 _atom_site_fract_y
 _atom_site_fract_z
 _atom_site_fract_occupancy
 Mo  Mo1  1  0.82961  0.17039  0.25000  1
 Mo  Mo2  1  0.82961  0.65923  0.25000  1
 Mo  Mo3  1  0.34077  0.17039  0.25000  1
 Mo  Mo4  1  0.17039  0.82961  0.75000  1
 Mo  Mo5  1  0.17039  0.34077  0.75000  1
 Mo  Mo6  1  0.65923  0.82961  0.75000  1
 Si  Si1  1  0.00000  0.00000  0.50000  1
 Si  Si2  1  0.00000  0.00000  0.00000  1
 Zr  Zr1  1  0.33333  0.66667  0.43651  1
 Zr  Zr2  1  0.66667  0.33333  0.56349  1
 Zr  Zr3  1  0.66667  0.33333  0.93651  1
 Zr  Zr4  1  0.33333  0.66667  0.06349  1
