CIF file written using JARVIS-Tools package.
data_Mn3CoP4O16
_symmetry_space_group_name_H-M  'Pm'
_cell_length_a       5.80384
_cell_length_b       4.74463
_cell_length_c       9.67115
_cell_angle_alpha    90.2949
_cell_angle_beta     90
_cell_angle_gamma    90

_symmetry_Int_Tables_number  6
_chemical_formula_structural  Mn3CoP4O16
_chemical_formula_sum  Mn3CoP4O6
_cell_volume  266.3118863288256
_cell_formula_units_Z  1
loop_
  _symmetry_equiv_pos_site_id
 _symmetry_equiv_pos_as_xyz
 1  'x, y, z'
loop_
 _atom_site_type_symbol
 _atom_site_label
 _atom_site_symmetry_multiplicity
 _atom_site_fract_x
 _atom_site_fract_y
 _atom_site_fract_z
 _atom_site_fract_occupancy
 Co  Co1  1  0.00000  0.06751  0.27448  1
 Mn  Mn1  1  0.00000  0.42769  0.78035  1
 Mn  Mn2  1  0.50000  0.57233  0.22403  1
 Mn  Mn3  1  0.50000  0.92291  0.72092  1
 O  O1  1  0.50000  0.16173  0.56558  1
 O  O2  1  0.29211  0.27087  0.33670  1
 O  O3  1  0.70789  0.27087  0.33670  1
 O  O4  1  0.20749  0.73335  0.66641  1
 O  O5  1  0.00000  0.29255  0.10886  1
 O  O6  1  0.29234  0.23750  0.83684  1
 O  O7  1  0.00000  0.20337  0.62046  1
 O  O8  1  0.50000  0.33588  0.06601  1
 O  O9  1  0.00000  0.67381  0.93312  1
 O  O10  1  0.21006  0.76106  0.16238  1
 O  O11  1  0.70766  0.23750  0.83684  1
 O  O12  1  0.50000  0.70825  0.88369  1
 O  O13  1  0.50000  0.79804  0.38218  1
 O  O14  1  0.79251  0.73335  0.66641  1
 O  O15  1  0.78994  0.76106  0.16238  1
 O  O16  1  0.00000  0.82883  0.43717  1
 P  P1  1  0.00000  0.88433  0.59117  1
 P  P2  1  0.00000  0.60951  0.09007  1
 P  P3  1  0.50000  0.38919  0.91002  1
 P  P4  1  0.50000  0.11851  0.40726  1
