CIF file written using JARVIS-Tools package.
data_GeH3
_symmetry_space_group_name_H-M  'P1'
_cell_length_a       4.50815
_cell_length_b       4.52866
_cell_length_c       2.96823
_cell_angle_alpha    69.939
_cell_angle_beta     87.8442
_cell_angle_gamma    118.206

_symmetry_Int_Tables_number  1
_chemical_formula_structural  GeH3
_chemical_formula_sum  GeH3
_cell_volume  48.68104245060866
_cell_formula_units_Z  1
loop_
  _symmetry_equiv_pos_site_id
 _symmetry_equiv_pos_as_xyz
 1  'x, y, z'
loop_
 _atom_site_type_symbol
 _atom_site_label
 _atom_site_symmetry_multiplicity
 _atom_site_fract_x
 _atom_site_fract_y
 _atom_site_fract_z
 _atom_site_fract_occupancy
 Ge  Ge1  1  0.20188  0.69943  0.17515  1
 H  H1  1  0.21229  0.05265  0.84836  1
 H  H2  1  0.86523  0.34970  0.23262  1
 H  H3  1  0.52764  0.69746  0.00901  1
