CIF file written using JARVIS-Tools package.
data_LiBi2
_symmetry_space_group_name_H-M  'Cmmm'
_cell_length_a       6.10074
_cell_length_b       3.27232
_cell_length_c       6.10144
_cell_angle_alpha    90
_cell_angle_beta     131.58
_cell_angle_gamma    90

_symmetry_Int_Tables_number  65
_chemical_formula_structural  LiBi2
_chemical_formula_sum  LiBi2
_cell_volume  91.11507885082189
_cell_formula_units_Z  1
loop_
  _symmetry_equiv_pos_site_id
 _symmetry_equiv_pos_as_xyz
 1  'x, y, z'
loop_
 _atom_site_type_symbol
 _atom_site_label
 _atom_site_symmetry_multiplicity
 _atom_site_fract_x
 _atom_site_fract_y
 _atom_site_fract_z
 _atom_site_fract_occupancy
 Bi  Bi1  1  -0.26802  0.00000  -0.22379  1
 Bi  Bi2  1  0.44178  0.00000  0.06649  1
 Li  Li1  1  0.08677  0.00000  0.42145  1
