CIF file written using JARVIS-Tools package.
data_CrH5O4
_symmetry_space_group_name_H-M  'Pm'
_cell_length_a       3.05296
_cell_length_b       4.33169
_cell_length_c       5.63334
_cell_angle_alpha    80.0301
_cell_angle_beta     90
_cell_angle_gamma    90

_symmetry_Int_Tables_number  6
_chemical_formula_structural  CrH5O4
_chemical_formula_sum  CrH5O4
_cell_volume  73.37305829261814
_cell_formula_units_Z  1
loop_
  _symmetry_equiv_pos_site_id
 _symmetry_equiv_pos_as_xyz
 1  'x, y, z'
loop_
 _atom_site_type_symbol
 _atom_site_label
 _atom_site_symmetry_multiplicity
 _atom_site_fract_x
 _atom_site_fract_y
 _atom_site_fract_z
 _atom_site_fract_occupancy
 Cr  Cr1  1  0.50000  0.95324  0.54358  1
 H  H1  1  0.25660  0.37634  0.79505  1
 H  H2  1  0.74340  0.37634  0.79505  1
 H  H3  1  0.50000  0.93900  0.07697  1
 H  H4  1  0.00000  0.42850  0.46628  1
 H  H5  1  0.50000  0.56762  0.20533  1
 O  O1  1  0.00000  0.68512  0.67898  1
 O  O2  1  0.00000  0.22979  0.39848  1
 O  O3  1  0.50000  0.21008  0.82601  1
 O  O4  1  0.50000  0.78518  0.23134  1
