CIF file written using JARVIS-Tools package.
data_BaBrO
_symmetry_space_group_name_H-M  'Pm'
_cell_length_a       4.66392
_cell_length_b       5.51667
_cell_length_c       4.96664
_cell_angle_alpha    90
_cell_angle_beta     90
_cell_angle_gamma    100.472

_symmetry_Int_Tables_number  6
_chemical_formula_structural  BaBrO
_chemical_formula_sum  BaBrO
_cell_volume  125.65957583302668
_cell_formula_units_Z  1
loop_
  _symmetry_equiv_pos_site_id
 _symmetry_equiv_pos_as_xyz
 1  'x, y, z'
loop_
 _atom_site_type_symbol
 _atom_site_label
 _atom_site_symmetry_multiplicity
 _atom_site_fract_x
 _atom_site_fract_y
 _atom_site_fract_z
 _atom_site_fract_occupancy
 Ba  Ba1  1  0.31665  -0.09799  0.00000  1
 Br  Br1  1  0.89560  0.33545  0.00000  1
 O  O1  1  0.78775  0.76254  0.00000  1
