CIF file written using JARVIS-Tools package.
data_S2F
_symmetry_space_group_name_H-M  'P6/mmm'
_cell_length_a       4.13174
_cell_length_b       4.13174
_cell_length_c       3.18018
_cell_angle_alpha    90
_cell_angle_beta     90
_cell_angle_gamma    120

_symmetry_Int_Tables_number  191
_chemical_formula_structural  S2F
_chemical_formula_sum  S2F
_cell_volume  47.01634822099484
_cell_formula_units_Z  1
loop_
  _symmetry_equiv_pos_site_id
 _symmetry_equiv_pos_as_xyz
 1  'x, y, z'
loop_
 _atom_site_type_symbol
 _atom_site_label
 _atom_site_symmetry_multiplicity
 _atom_site_fract_x
 _atom_site_fract_y
 _atom_site_fract_z
 _atom_site_fract_occupancy
 F  F1  1  0.00000  0.00000  0.00000  1
 S  S1  1  0.33333  0.66667  0.00000  1
 S  S2  1  0.66667  0.33333  0.00000  1
