CIF file written using JARVIS-Tools package.
data_SF2
_symmetry_space_group_name_H-M  'Pmm2'
_cell_length_a       5.23926
_cell_length_b       3.84857
_cell_length_c       3.59981
_cell_angle_alpha    90
_cell_angle_beta     90
_cell_angle_gamma    90

_symmetry_Int_Tables_number  25
_chemical_formula_structural  SF2
_chemical_formula_sum  SF2
_cell_volume  72.58531425594416
_cell_formula_units_Z  1
loop_
  _symmetry_equiv_pos_site_id
 _symmetry_equiv_pos_as_xyz
 1  'x, y, z'
loop_
 _atom_site_type_symbol
 _atom_site_label
 _atom_site_symmetry_multiplicity
 _atom_site_fract_x
 _atom_site_fract_y
 _atom_site_fract_z
 _atom_site_fract_occupancy
 F  F1  1  0.23547  -0.00203  0.00000  1
 F  F2  1  0.76453  -0.00203  0.00000  1
 S  S1  1  0.00000  0.27605  0.00000  1
