CIF file written using JARVIS-Tools package.
data_S2F
_symmetry_space_group_name_H-M  'Pm'
_cell_length_a       4.08258
_cell_length_b       2.98568
_cell_length_c       4.8502
_cell_angle_alpha    90
_cell_angle_beta     86.731
_cell_angle_gamma    90

_symmetry_Int_Tables_number  6
_chemical_formula_structural  S2F
_chemical_formula_sum  S2F
_cell_volume  59.02430908888437
_cell_formula_units_Z  1
loop_
  _symmetry_equiv_pos_site_id
 _symmetry_equiv_pos_as_xyz
 1  'x, y, z'
loop_
 _atom_site_type_symbol
 _atom_site_label
 _atom_site_symmetry_multiplicity
 _atom_site_fract_x
 _atom_site_fract_y
 _atom_site_fract_z
 _atom_site_fract_occupancy
 F  F1  1  0.51647  0.00000  0.00175  1
 S  S1  1  -0.07673  0.00000  -0.10743  1
 S  S2  1  -0.03973  0.00000  0.50567  1
