CIF file written using JARVIS-Tools package.
data_Ba2Te
_symmetry_space_group_name_H-M  'Pm'
_cell_length_a       6.89779
_cell_length_b       6.75734
_cell_length_c       8.49052
_cell_angle_alpha    37.2791
_cell_angle_beta     74.334
_cell_angle_gamma    103.166

_symmetry_Int_Tables_number  6
_chemical_formula_structural  Ba2Te
_chemical_formula_sum  Ba2Te
_cell_volume  150.2795486952941
_cell_formula_units_Z  1
loop_
  _symmetry_equiv_pos_site_id
 _symmetry_equiv_pos_as_xyz
 1  'x, y, z'
loop_
 _atom_site_type_symbol
 _atom_site_label
 _atom_site_symmetry_multiplicity
 _atom_site_fract_x
 _atom_site_fract_y
 _atom_site_fract_z
 _atom_site_fract_occupancy
 Ba  Ba1  1  0.58424  0.36655  0.24586  1
 Ba  Ba2  1  0.32185  0.07621  0.00825  1
 Te  Te1  1  0.04238  0.24079  0.28764  1
