CIF file written using JARVIS-Tools package.
data_BaTe
_symmetry_space_group_name_H-M  'Fm-3m'
_cell_length_a       4.98133
_cell_length_b       4.98133
_cell_length_c       7.04522
_cell_angle_alpha    90
_cell_angle_beta     90
_cell_angle_gamma    90

_symmetry_Int_Tables_number  225
_chemical_formula_structural  BaTe
_chemical_formula_sum  Ba2Te2
_cell_volume  174.81764636780824
_cell_formula_units_Z  2
loop_
  _symmetry_equiv_pos_site_id
 _symmetry_equiv_pos_as_xyz
 1  'x, y, z'
loop_
 _atom_site_type_symbol
 _atom_site_label
 _atom_site_symmetry_multiplicity
 _atom_site_fract_x
 _atom_site_fract_y
 _atom_site_fract_z
 _atom_site_fract_occupancy
 Ba  Ba1  1  0.00000  0.00000  0.25000  1
 Ba  Ba2  1  0.50000  0.50000  0.75000  1
 Te  Te1  1  0.00000  0.00000  0.75001  1
 Te  Te2  1  0.50000  0.50000  0.24999  1
