CIF file written using JARVIS-Tools package.
data_CIN
_symmetry_space_group_name_H-M  'Pm'
_cell_length_a       4.21494
_cell_length_b       5.4709
_cell_length_c       4.12855
_cell_angle_alpha    90
_cell_angle_beta     90
_cell_angle_gamma    73.08

_symmetry_Int_Tables_number  6
_chemical_formula_structural  CIN
_chemical_formula_sum  CIN
_cell_volume  91.08125234536982
_cell_formula_units_Z  1
loop_
  _symmetry_equiv_pos_site_id
 _symmetry_equiv_pos_as_xyz
 1  'x, y, z'
loop_
 _atom_site_type_symbol
 _atom_site_label
 _atom_site_symmetry_multiplicity
 _atom_site_fract_x
 _atom_site_fract_y
 _atom_site_fract_z
 _atom_site_fract_occupancy
 C  C1  1  -0.20054  -0.33360  0.00000  1
 I  I1  1  0.45410  0.01499  0.00000  1
 N  N1  1  0.00130  0.46848  0.00000  1
