CIF file written using JARVIS-Tools package.
data_Li2VF6
_symmetry_space_group_name_H-M  'P-31m'
_cell_length_a       4.85998
_cell_length_b       4.85998
_cell_length_c       4.41946
_cell_angle_alpha    90
_cell_angle_beta     90
_cell_angle_gamma    120

_symmetry_Int_Tables_number  162
_chemical_formula_structural  Li2VF6
_chemical_formula_sum  Li2VF6
_cell_volume  90.40029445711158
_cell_formula_units_Z  1
loop_
  _symmetry_equiv_pos_site_id
 _symmetry_equiv_pos_as_xyz
 1  'x, y, z'
loop_
 _atom_site_type_symbol
 _atom_site_label
 _atom_site_symmetry_multiplicity
 _atom_site_fract_x
 _atom_site_fract_y
 _atom_site_fract_z
 _atom_site_fract_occupancy
 F  F1  1  -0.00000  0.68621  0.24531  1
 F  F2  1  0.31379  0.00000  0.75469  1
 F  F3  1  0.68621  0.68621  0.75469  1
 F  F4  1  0.31379  0.31379  0.24531  1
 F  F5  1  0.68621  -0.00000  0.24531  1
 F  F6  1  0.00000  0.31379  0.75469  1
 Li  Li1  1  0.33333  0.66667  0.50000  1
 Li  Li2  1  0.66667  0.33333  0.50000  1
 V  V1  1  0.00000  0.00000  0.00000  1
