CIF file written using JARVIS-Tools package.
data_ZrCoSi
_symmetry_space_group_name_H-M  'Pnma'
_cell_length_a       3.87269
_cell_length_b       6.49392
_cell_length_c       7.13009
_cell_angle_alpha    90
_cell_angle_beta     90
_cell_angle_gamma    90

_symmetry_Int_Tables_number  62
_chemical_formula_structural  ZrCoSi
_chemical_formula_sum  Zr4Co4Si4
_cell_volume  179.31416871062933
_cell_formula_units_Z  4
loop_
  _symmetry_equiv_pos_site_id
 _symmetry_equiv_pos_as_xyz
 1  'x, y, z'
loop_
 _atom_site_type_symbol
 _atom_site_label
 _atom_site_symmetry_multiplicity
 _atom_site_fract_x
 _atom_site_fract_y
 _atom_site_fract_z
 _atom_site_fract_occupancy
 Co  Co1  1  0.25000  0.14473  0.92997  1
 Co  Co2  1  0.25000  0.64473  0.57003  1
 Co  Co3  1  0.75000  0.85527  0.07003  1
 Co  Co4  1  0.75000  0.35527  0.42997  1
 Si  Si1  1  0.25000  0.28284  0.60320  1
 Si  Si2  1  0.25000  0.78284  0.89680  1
 Si  Si3  1  0.75000  0.71716  0.39680  1
 Si  Si4  1  0.75000  0.21716  0.10320  1
 Zr  Zr1  1  0.25000  0.00559  0.30564  1
 Zr  Zr2  1  0.25000  0.50559  0.19436  1
 Zr  Zr3  1  0.75000  0.99441  0.69436  1
 Zr  Zr4  1  0.75000  0.49441  0.80564  1
