CIF file written using JARVIS-Tools package.
data_MnVO3
_symmetry_space_group_name_H-M  'Pnma'
_cell_length_a       5.08216
_cell_length_b       5.26909
_cell_length_c       7.40817
_cell_angle_alpha    90.0013
_cell_angle_beta     89.9981
_cell_angle_gamma    89.9995

_symmetry_Int_Tables_number  62
_chemical_formula_structural  MnVO3
_chemical_formula_sum  Mn4V4O2
_cell_volume  198.37836046690003
_cell_formula_units_Z  4
loop_
  _symmetry_equiv_pos_site_id
 _symmetry_equiv_pos_as_xyz
 1  'x, y, z'
loop_
 _atom_site_type_symbol
 _atom_site_label
 _atom_site_symmetry_multiplicity
 _atom_site_fract_x
 _atom_site_fract_y
 _atom_site_fract_z
 _atom_site_fract_occupancy
 Mn  Mn1  1  0.48791  0.05418  0.25000  1
 Mn  Mn2  1  0.51209  0.94582  0.75000  1
 Mn  Mn3  1  0.01207  0.55418  0.25000  1
 Mn  Mn4  1  0.98793  0.44582  0.75000  1
 O  O1  1  0.88026  0.95236  0.25000  1
 O  O2  1  0.31602  0.80646  0.43994  1
 O  O3  1  0.11974  0.04764  0.75000  1
 O  O4  1  0.38027  0.54766  0.75000  1
 O  O5  1  0.61973  0.45234  0.25000  1
 O  O6  1  0.18397  0.30647  0.43995  1
 O  O7  1  0.68398  0.19354  0.56006  1
 O  O8  1  0.68398  0.19354  0.93994  1
 O  O9  1  0.31602  0.80646  0.06006  1
 O  O10  1  0.81603  0.69353  0.56005  1
 O  O11  1  0.81603  0.69353  0.93995  1
 O  O12  1  0.18397  0.30647  0.06005  1
 V  V1  1  0.00000  0.00000  0.00000  1
 V  V2  1  0.50000  0.50000  0.50000  1
 V  V3  1  0.00000  0.00000  0.50000  1
 V  V4  1  0.50000  0.50000  -0.00000  1
