CIF file written using JARVIS-Tools package.
data_RbBiF
_symmetry_space_group_name_H-M  'Pmmm'
_cell_length_a       4.9034
_cell_length_b       7.24977
_cell_length_c       3.40464
_cell_angle_alpha    90
_cell_angle_beta     90
_cell_angle_gamma    49.3323

_symmetry_Int_Tables_number  47
_chemical_formula_structural  RbBiF
_chemical_formula_sum  RbBiF
_cell_volume  91.80156756804286
_cell_formula_units_Z  1
loop_
  _symmetry_equiv_pos_site_id
 _symmetry_equiv_pos_as_xyz
 1  'x, y, z'
loop_
 _atom_site_type_symbol
 _atom_site_label
 _atom_site_symmetry_multiplicity
 _atom_site_fract_x
 _atom_site_fract_y
 _atom_site_fract_z
 _atom_site_fract_occupancy
 Bi  Bi1  1  -0.08054  -0.04200  0.00000  1
 F  F1  1  0.41944  -0.04198  0.00000  1
 Rb  Rb1  1  -0.08068  0.45803  0.00000  1
