CIF file written using JARVIS-Tools package.
data_BiN
_symmetry_space_group_name_H-M  'P2_1'
_cell_length_a       5.18534
_cell_length_b       7.43225
_cell_length_c       3.60721
_cell_angle_alpha    62.4203
_cell_angle_beta     48.418
_cell_angle_gamma    45.8155

_symmetry_Int_Tables_number  4
_chemical_formula_structural  BiN
_chemical_formula_sum  Bi2N2
_cell_volume  74.56819011277504
_cell_formula_units_Z  2
loop_
  _symmetry_equiv_pos_site_id
 _symmetry_equiv_pos_as_xyz
 1  'x, y, z'
loop_
 _atom_site_type_symbol
 _atom_site_label
 _atom_site_symmetry_multiplicity
 _atom_site_fract_x
 _atom_site_fract_y
 _atom_site_fract_z
 _atom_site_fract_occupancy
 Bi  Bi1  1  0.18687  0.92431  -0.03214  1
 Bi  Bi2  1  0.22445  0.42403  0.91505  1
 N  N1  1  0.66182  0.34278  0.08031  1
 N  N2  1  0.91248  0.84257  0.80267  1
