CIF file written using JARVIS-Tools package.
data_NaAlSe2
_symmetry_space_group_name_H-M  'R-3m'
_cell_length_a       7.23504
_cell_length_b       7.23504
_cell_length_c       7.23504
_cell_angle_alpha    30.2471
_cell_angle_beta     30.2471
_cell_angle_gamma    30.2471

_symmetry_Int_Tables_number  166
_chemical_formula_structural  NaAlSe2
_chemical_formula_sum  NaAlSe2
_cell_volume  85.15423894698282
_cell_formula_units_Z  1
loop_
  _symmetry_equiv_pos_site_id
 _symmetry_equiv_pos_as_xyz
 1  'x, y, z'
loop_
 _atom_site_type_symbol
 _atom_site_label
 _atom_site_symmetry_multiplicity
 _atom_site_fract_x
 _atom_site_fract_y
 _atom_site_fract_z
 _atom_site_fract_occupancy
 Al  Al1  1  0.50000  0.50000  0.50000  1
 Na  Na1  1  0.00000  0.00000  0.00000  1
 Se  Se1  1  0.76460  0.76460  0.76460  1
 Se  Se2  1  0.23540  0.23540  0.23540  1
