CIF file written using JARVIS-Tools package.
data_CBr2
_symmetry_space_group_name_H-M  'P1'
_cell_length_a       3.89723
_cell_length_b       3.96077
_cell_length_c       5.7025
_cell_angle_alpha    98.3604
_cell_angle_beta     82.4048
_cell_angle_gamma    113.44

_symmetry_Int_Tables_number  1
_chemical_formula_structural  CBr2
_chemical_formula_sum  CBr2
_cell_volume  79.63326889676739
_cell_formula_units_Z  1
loop_
  _symmetry_equiv_pos_site_id
 _symmetry_equiv_pos_as_xyz
 1  'x, y, z'
loop_
 _atom_site_type_symbol
 _atom_site_label
 _atom_site_symmetry_multiplicity
 _atom_site_fract_x
 _atom_site_fract_y
 _atom_site_fract_z
 _atom_site_fract_occupancy
 Br  Br1  1  0.13062  0.43947  0.20993  1
 Br  Br2  1  0.43152  0.13344  0.71667  1
 C  C1  1  0.02447  0.02881  0.96463  1
