CIF file written using JARVIS-Tools package.
data_IBr2
_symmetry_space_group_name_H-M  'P-1'
_cell_length_a       4.22003
_cell_length_b       6.67794
_cell_length_c       4.21646
_cell_angle_alpha    92.5858
_cell_angle_beta     63.641
_cell_angle_gamma    80.6068

_symmetry_Int_Tables_number  2
_chemical_formula_structural  IBr2
_chemical_formula_sum  IBr2
_cell_volume  104.10966078344354
_cell_formula_units_Z  1
loop_
  _symmetry_equiv_pos_site_id
 _symmetry_equiv_pos_as_xyz
 1  'x, y, z'
loop_
 _atom_site_type_symbol
 _atom_site_label
 _atom_site_symmetry_multiplicity
 _atom_site_fract_x
 _atom_site_fract_y
 _atom_site_fract_z
 _atom_site_fract_occupancy
 Br  Br1  1  0.35079  0.34897  0.56094  1
 Br  Br2  1  0.75768  0.74239  0.23727  1
 I  I1  1  0.05425  0.04569  0.89909  1
