CIF file written using JARVIS-Tools package.
data_Mn2SO2
_symmetry_space_group_name_H-M  'P-3m1'
_cell_length_a       3.37077
_cell_length_b       3.37077
_cell_length_c       6.10175
_cell_angle_alpha    90
_cell_angle_beta     90
_cell_angle_gamma    120

_symmetry_Int_Tables_number  164
_chemical_formula_structural  Mn2SO2
_chemical_formula_sum  Mn2SO2
_cell_volume  60.04036500100689
_cell_formula_units_Z  1
loop_
  _symmetry_equiv_pos_site_id
 _symmetry_equiv_pos_as_xyz
 1  'x, y, z'
loop_
 _atom_site_type_symbol
 _atom_site_label
 _atom_site_symmetry_multiplicity
 _atom_site_fract_x
 _atom_site_fract_y
 _atom_site_fract_z
 _atom_site_fract_occupancy
 Mn  Mn1  1  0.66667  0.33333  0.77687  1
 Mn  Mn2  1  0.33333  0.66667  0.22313  1
 O  O1  1  0.66667  0.33333  0.13755  1
 O  O2  1  0.33333  0.66667  0.86245  1
 S  S1  1  0.00000  0.00000  0.50000  1
