CIF file written using JARVIS-Tools package.
data_MnSbO4
_symmetry_space_group_name_H-M  'P2/m'
_cell_length_a       4.69569
_cell_length_b       3.08973
_cell_length_c       5.31573
_cell_angle_alpha    90
_cell_angle_beta     112.483
_cell_angle_gamma    90

_symmetry_Int_Tables_number  10
_chemical_formula_structural  MnSbO4
_chemical_formula_sum  MnSbO4
_cell_volume  71.26072646191987
_cell_formula_units_Z  1
loop_
  _symmetry_equiv_pos_site_id
 _symmetry_equiv_pos_as_xyz
 1  'x, y, z'
loop_
 _atom_site_type_symbol
 _atom_site_label
 _atom_site_symmetry_multiplicity
 _atom_site_fract_x
 _atom_site_fract_y
 _atom_site_fract_z
 _atom_site_fract_occupancy
 Mn  Mn1  1  0.50000  0.50000  -0.00000  1
 O  O1  1  0.71805  0.00000  0.22764  1
 O  O2  1  0.72607  0.50000  0.76243  1
 O  O3  1  0.28195  0.00000  0.77236  1
 O  O4  1  0.27393  0.50000  0.23757  1
 Sb  Sb1  1  0.50000  0.00000  0.50000  1
