CIF file written using JARVIS-Tools package.
data_BBrN
_symmetry_space_group_name_H-M  'Pmmm'
_cell_length_a       2.61398
_cell_length_b       5.45584
_cell_length_c       4.12233
_cell_angle_alpha    90
_cell_angle_beta     90
_cell_angle_gamma    90

_symmetry_Int_Tables_number  47
_chemical_formula_structural  BBrN
_chemical_formula_sum  BBrN
_cell_volume  58.790555945673894
_cell_formula_units_Z  1
loop_
  _symmetry_equiv_pos_site_id
 _symmetry_equiv_pos_as_xyz
 1  'x, y, z'
loop_
 _atom_site_type_symbol
 _atom_site_label
 _atom_site_symmetry_multiplicity
 _atom_site_fract_x
 _atom_site_fract_y
 _atom_site_fract_z
 _atom_site_fract_occupancy
 B  B1  1  0.00000  0.00000  -0.01341  1
 Br  Br1  1  0.50000  0.50000  0.48679  1
 N  N1  1  0.50000  0.00000  -0.01338  1
