CIF file written using JARVIS-Tools package.
data_NCl2
_symmetry_space_group_name_H-M  'Pmm2'
_cell_length_a       6.17136
_cell_length_b       3.75941
_cell_length_c       3.136
_cell_angle_alpha    90
_cell_angle_beta     90
_cell_angle_gamma    90

_symmetry_Int_Tables_number  25
_chemical_formula_structural  NCl2
_chemical_formula_sum  NCl2
_cell_volume  72.75743905989887
_cell_formula_units_Z  1
loop_
  _symmetry_equiv_pos_site_id
 _symmetry_equiv_pos_as_xyz
 1  'x, y, z'
loop_
 _atom_site_type_symbol
 _atom_site_label
 _atom_site_symmetry_multiplicity
 _atom_site_fract_x
 _atom_site_fract_y
 _atom_site_fract_z
 _atom_site_fract_occupancy
 Cl  Cl1  1  0.22940  0.02284  0.00000  1
 Cl  Cl2  1  0.77060  0.02284  0.00000  1
 N  N1  1  0.00000  0.27432  0.00000  1
