CIF file written using JARVIS-Tools package.
data_BaInBr
_symmetry_space_group_name_H-M  'Pm'
_cell_length_a       6.26788
_cell_length_b       7.18532
_cell_length_c       3.84842
_cell_angle_alpha    90
_cell_angle_beta     90
_cell_angle_gamma    57.7435

_symmetry_Int_Tables_number  6
_chemical_formula_structural  BaInBr
_chemical_formula_sum  BaInBr
_cell_volume  146.5711458090929
_cell_formula_units_Z  1
loop_
  _symmetry_equiv_pos_site_id
 _symmetry_equiv_pos_as_xyz
 1  'x, y, z'
loop_
 _atom_site_type_symbol
 _atom_site_label
 _atom_site_symmetry_multiplicity
 _atom_site_fract_x
 _atom_site_fract_y
 _atom_site_fract_z
 _atom_site_fract_occupancy
 Ba  Ba1  1  -0.04709  -0.05133  0.00000  1
 Br  Br1  1  0.45237  -0.05042  0.00000  1
 In  In1  1  -0.04819  0.44918  0.00000  1
