CIF file written using JARVIS-Tools package.
data_BrO2
_symmetry_space_group_name_H-M  'P1'
_cell_length_a       3.89938
_cell_length_b       3.45828
_cell_length_c       4.34389
_cell_angle_alpha    48.4724
_cell_angle_beta     71.2461
_cell_angle_gamma    86.8779

_symmetry_Int_Tables_number  1
_chemical_formula_structural  BrO2
_chemical_formula_sum  BrO2
_cell_volume  40.47158828395547
_cell_formula_units_Z  1
loop_
  _symmetry_equiv_pos_site_id
 _symmetry_equiv_pos_as_xyz
 1  'x, y, z'
loop_
 _atom_site_type_symbol
 _atom_site_label
 _atom_site_symmetry_multiplicity
 _atom_site_fract_x
 _atom_site_fract_y
 _atom_site_fract_z
 _atom_site_fract_occupancy
 Br  Br1  1  -0.10438  0.15750  0.93285  1
 O  O1  1  0.45154  0.04487  0.23996  1
 O  O2  1  0.86520  0.19543  0.53423  1
