CIF file written using JARVIS-Tools package.
data_PSBr
_symmetry_space_group_name_H-M  'P4mm'
_cell_length_a       2.8006
_cell_length_b       2.8006
_cell_length_c       8.8501
_cell_angle_alpha    90
_cell_angle_beta     90
_cell_angle_gamma    90

_symmetry_Int_Tables_number  99
_chemical_formula_structural  PSBr
_chemical_formula_sum  PSBr
_cell_volume  69.41438913038479
_cell_formula_units_Z  1
loop_
  _symmetry_equiv_pos_site_id
 _symmetry_equiv_pos_as_xyz
 1  'x, y, z'
loop_
 _atom_site_type_symbol
 _atom_site_label
 _atom_site_symmetry_multiplicity
 _atom_site_fract_x
 _atom_site_fract_y
 _atom_site_fract_z
 _atom_site_fract_occupancy
 Br  Br1  1  0.00000  0.00000  0.00212  1
 P  P1  1  0.00000  0.00000  0.37457  1
 S  S1  1  0.00000  0.00000  0.60917  1
