CIF file written using JARVIS-Tools package.
data_NaF
_symmetry_space_group_name_H-M  'Fm-3m'
_cell_length_a       5.66766
_cell_length_b       3.2723
_cell_length_c       3.27223
_cell_angle_alpha    120
_cell_angle_beta     106.778
_cell_angle_gamma    90.0007

_symmetry_Int_Tables_number  225
_chemical_formula_structural  NaF
_chemical_formula_sum  Na2F2
_cell_volume  49.55103457549324
_cell_formula_units_Z  2
loop_
  _symmetry_equiv_pos_site_id
 _symmetry_equiv_pos_as_xyz
 1  'x, y, z'
loop_
 _atom_site_type_symbol
 _atom_site_label
 _atom_site_symmetry_multiplicity
 _atom_site_fract_x
 _atom_site_fract_y
 _atom_site_fract_z
 _atom_site_fract_occupancy
 F  F1  1  0.82048  0.35299  0.62223  1
 F  F2  1  0.32048  0.85297  0.62221  1
 Na  Na1  1  0.07048  0.10298  0.12215  1
 Na  Na2  1  0.57048  0.60307  0.12224  1
