CIF file written using JARVIS-Tools package.
data_BaZnF
_symmetry_space_group_name_H-M  'Pm'
_cell_length_a       4.542
_cell_length_b       7.18205
_cell_length_c       4.02752
_cell_angle_alpha    90
_cell_angle_beta     90
_cell_angle_gamma    54.6701

_symmetry_Int_Tables_number  6
_chemical_formula_structural  BaZnF
_chemical_formula_sum  BaZnF
_cell_volume  107.18531018728879
_cell_formula_units_Z  1
loop_
  _symmetry_equiv_pos_site_id
 _symmetry_equiv_pos_as_xyz
 1  'x, y, z'
loop_
 _atom_site_type_symbol
 _atom_site_label
 _atom_site_symmetry_multiplicity
 _atom_site_fract_x
 _atom_site_fract_y
 _atom_site_fract_z
 _atom_site_fract_occupancy
 Ba  Ba1  1  0.00594  -0.11830  0.00000  1
 F  F1  1  0.34746  0.05618  0.00000  1
 Zn  Zn1  1  -0.08137  0.43616  0.00000  1
