CIF file written using JARVIS-Tools package.
data_PBr
_symmetry_space_group_name_H-M  'P1'
_cell_length_a       8.18698
_cell_length_b       6.64863
_cell_length_c       5.65944
_cell_angle_alpha    31.7256
_cell_angle_beta     53.0675
_cell_angle_gamma    42.4725

_symmetry_Int_Tables_number  1
_chemical_formula_structural  PBr
_chemical_formula_sum  P2Br2
_cell_volume  109.07737482858882
_cell_formula_units_Z  2
loop_
  _symmetry_equiv_pos_site_id
 _symmetry_equiv_pos_as_xyz
 1  'x, y, z'
loop_
 _atom_site_type_symbol
 _atom_site_label
 _atom_site_symmetry_multiplicity
 _atom_site_fract_x
 _atom_site_fract_y
 _atom_site_fract_z
 _atom_site_fract_occupancy
 Br  Br1  1  0.90158  0.05207  0.10287  1
 Br  Br2  1  0.31579  0.14260  0.19084  1
 P  P1  1  0.66828  0.83459  -0.01855  1
 P  P2  1  0.54919  0.45444  0.21807  1
