CIF file written using JARVIS-Tools package.
data_BeSnTe
_symmetry_space_group_name_H-M  'Pm'
_cell_length_a       4.4607
_cell_length_b       6.25633
_cell_length_c       3.12951
_cell_angle_alpha    90
_cell_angle_beta     90
_cell_angle_gamma    71.9885

_symmetry_Int_Tables_number  6
_chemical_formula_structural  BeSnTe
_chemical_formula_sum  BeSnTe
_cell_volume  83.05686023265051
_cell_formula_units_Z  1
loop_
  _symmetry_equiv_pos_site_id
 _symmetry_equiv_pos_as_xyz
 1  'x, y, z'
loop_
 _atom_site_type_symbol
 _atom_site_label
 _atom_site_symmetry_multiplicity
 _atom_site_fract_x
 _atom_site_fract_y
 _atom_site_fract_z
 _atom_site_fract_occupancy
 Be  Be1  1  -0.02794  -0.18000  0.00000  1
 Sn  Sn1  1  0.39131  -0.01068  0.00000  1
 Te  Te1  1  -0.09134  0.45497  0.00000  1
