CIF file written using JARVIS-Tools package.
data_PBr5
_symmetry_space_group_name_H-M  'Pmm2'
_cell_length_a       6.46865
_cell_length_b       7.47677
_cell_length_c       8.06482
_cell_angle_alpha    90
_cell_angle_beta     90
_cell_angle_gamma    90

_symmetry_Int_Tables_number  25
_chemical_formula_structural  PBr5
_chemical_formula_sum  PBr5
_cell_volume  390.0522175217823
_cell_formula_units_Z  1
loop_
  _symmetry_equiv_pos_site_id
 _symmetry_equiv_pos_as_xyz
 1  'x, y, z'
loop_
 _atom_site_type_symbol
 _atom_site_label
 _atom_site_symmetry_multiplicity
 _atom_site_fract_x
 _atom_site_fract_y
 _atom_site_fract_z
 _atom_site_fract_occupancy
 Br  Br1  1  0.82066  0.00000  0.20606  1
 Br  Br2  1  0.65291  0.73614  0.50000  1
 Br  Br3  1  0.65291  0.26386  0.50000  1
 Br  Br4  1  0.17174  0.00000  0.50000  1
 Br  Br5  1  0.82066  0.00000  0.79394  1
 P  P1  1  0.82536  0.00000  0.50000  1
