CIF file written using JARVIS-Tools package.
data_BeSbTe
_symmetry_space_group_name_H-M  'Pm'
_cell_length_a       4.25536
_cell_length_b       6.63203
_cell_length_c       3.16092
_cell_angle_alpha    90
_cell_angle_beta     90
_cell_angle_gamma    67.192

_symmetry_Int_Tables_number  6
_chemical_formula_structural  BeSbTe
_chemical_formula_sum  BeSbTe
_cell_volume  82.23134237430997
_cell_formula_units_Z  1
loop_
  _symmetry_equiv_pos_site_id
 _symmetry_equiv_pos_as_xyz
 1  'x, y, z'
loop_
 _atom_site_type_symbol
 _atom_site_label
 _atom_site_symmetry_multiplicity
 _atom_site_fract_x
 _atom_site_fract_y
 _atom_site_fract_z
 _atom_site_fract_occupancy
 Be  Be1  1  0.37356  0.05986  0.00000  1
 Sb  Sb1  1  -0.02021  -0.13890  0.00000  1
 Te  Te1  1  -0.08132  0.40250  0.00000  1
