CIF file written using JARVIS-Tools package.
data_ScCCl2
_symmetry_space_group_name_H-M  'P4mm'
_cell_length_a       3.29617
_cell_length_b       3.29617
_cell_length_c       7.27773
_cell_angle_alpha    90
_cell_angle_beta     90
_cell_angle_gamma    90

_symmetry_Int_Tables_number  99
_chemical_formula_structural  ScCCl2
_chemical_formula_sum  ScCCl2
_cell_volume  79.07061896510982
_cell_formula_units_Z  1
loop_
  _symmetry_equiv_pos_site_id
 _symmetry_equiv_pos_as_xyz
 1  'x, y, z'
loop_
 _atom_site_type_symbol
 _atom_site_label
 _atom_site_symmetry_multiplicity
 _atom_site_fract_x
 _atom_site_fract_y
 _atom_site_fract_z
 _atom_site_fract_occupancy
 C  C1  1  0.00000  0.00000  0.69569  1
 Cl  Cl1  1  0.00000  0.00000  0.45287  1
 Cl  Cl2  1  0.50000  0.50000  0.08658  1
 Sc  Sc1  1  0.50000  0.50000  0.77486  1
