CIF file written using JARVIS-Tools package.
data_Ge2C
_symmetry_space_group_name_H-M  'Pmmm'
_cell_length_a       3.05454
_cell_length_b       2.81587
_cell_length_c       6.18693
_cell_angle_alpha    90
_cell_angle_beta     90
_cell_angle_gamma    90

_symmetry_Int_Tables_number  47
_chemical_formula_structural  Ge2C
_chemical_formula_sum  Ge2C
_cell_volume  53.214826522496104
_cell_formula_units_Z  1
loop_
  _symmetry_equiv_pos_site_id
 _symmetry_equiv_pos_as_xyz
 1  'x, y, z'
loop_
 _atom_site_type_symbol
 _atom_site_label
 _atom_site_symmetry_multiplicity
 _atom_site_fract_x
 _atom_site_fract_y
 _atom_site_fract_z
 _atom_site_fract_occupancy
 C  C1  1  0.46667  0.00000  0.00000  1
 Ge  Ge1  1  -0.03333  0.00000  0.77409  1
 Ge  Ge2  1  -0.03333  0.00000  0.22592  1
