CIF file written using JARVIS-Tools package.
data_SiCN
_symmetry_space_group_name_H-M  'Pm'
_cell_length_a       3.20437
_cell_length_b       4.10912
_cell_length_c       2.94588
_cell_angle_alpha    90
_cell_angle_beta     90
_cell_angle_gamma    108.921

_symmetry_Int_Tables_number  6
_chemical_formula_structural  SiCN
_chemical_formula_sum  SiCN
_cell_volume  36.69292607470546
_cell_formula_units_Z  1
loop_
  _symmetry_equiv_pos_site_id
 _symmetry_equiv_pos_as_xyz
 1  'x, y, z'
loop_
 _atom_site_type_symbol
 _atom_site_label
 _atom_site_symmetry_multiplicity
 _atom_site_fract_x
 _atom_site_fract_y
 _atom_site_fract_z
 _atom_site_fract_occupancy
 C  C1  1  -0.43794  -0.28292  0.00000  1
 N  N1  1  0.64020  0.04288  0.00000  1
 Si  Si1  1  -0.05240  0.45796  0.00000  1
