CIF file written using JARVIS-Tools package.
data_Mg2CuAs2
_symmetry_space_group_name_H-M  'C2/m'
_cell_length_a       4.40755
_cell_length_b       4.40755
_cell_length_c       5.5891
_cell_angle_alpha    96.0318
_cell_angle_beta     96.0318
_cell_angle_gamma    70.8958

_symmetry_Int_Tables_number  12
_chemical_formula_structural  Mg2CuAs2
_chemical_formula_sum  Mg2CuAs2
_cell_volume  101.73923006032922
_cell_formula_units_Z  1
loop_
  _symmetry_equiv_pos_site_id
 _symmetry_equiv_pos_as_xyz
 1  'x, y, z'
loop_
 _atom_site_type_symbol
 _atom_site_label
 _atom_site_symmetry_multiplicity
 _atom_site_fract_x
 _atom_site_fract_y
 _atom_site_fract_z
 _atom_site_fract_occupancy
 As  As1  1  0.29107  0.29107  0.25032  1
 As  As2  1  0.70893  0.70893  0.74968  1
 Cu  Cu1  1  0.00000  0.00000  0.00000  1
 Mg  Mg1  1  0.33533  0.33533  0.74618  1
 Mg  Mg2  1  0.66467  0.66467  0.25382  1
