CIF file written using JARVIS-Tools package.
data_ZrNCl
_symmetry_space_group_name_H-M  'P-3m1'
_cell_length_a       3.43681
_cell_length_b       3.4368
_cell_length_c       11.1215
_cell_angle_alpha    90
_cell_angle_beta     90
_cell_angle_gamma    120

_symmetry_Int_Tables_number  164
_chemical_formula_structural  ZrNCl
_chemical_formula_sum  Zr2N2Cl2
_cell_volume  113.76352386310538
_cell_formula_units_Z  2
loop_
  _symmetry_equiv_pos_site_id
 _symmetry_equiv_pos_as_xyz
 1  'x, y, z'
loop_
 _atom_site_type_symbol
 _atom_site_label
 _atom_site_symmetry_multiplicity
 _atom_site_fract_x
 _atom_site_fract_y
 _atom_site_fract_z
 _atom_site_fract_occupancy
 Cl  Cl1  1  0.33333  0.66667  0.63691  1
 Cl  Cl2  1  0.66667  0.33333  0.36309  1
 N  N1  1  0.66667  0.33333  0.86067  1
 N  N2  1  0.33333  0.66667  0.13933  1
 Zr  Zr1  1  0.00000  0.00000  0.80427  1
 Zr  Zr2  1  0.00000  0.00000  0.19573  1
