CIF file written using JARVIS-Tools package.
data_AsI
_symmetry_space_group_name_H-M  'Fm-3m'
_cell_length_a       4.36913
_cell_length_b       4.36913
_cell_length_c       6.20511
_cell_angle_alpha    90
_cell_angle_beta     90
_cell_angle_gamma    90

_symmetry_Int_Tables_number  225
_chemical_formula_structural  AsI
_chemical_formula_sum  As2I2
_cell_volume  118.45125417069194
_cell_formula_units_Z  2
loop_
  _symmetry_equiv_pos_site_id
 _symmetry_equiv_pos_as_xyz
 1  'x, y, z'
loop_
 _atom_site_type_symbol
 _atom_site_label
 _atom_site_symmetry_multiplicity
 _atom_site_fract_x
 _atom_site_fract_y
 _atom_site_fract_z
 _atom_site_fract_occupancy
 As  As1  1  0.00000  0.00000  0.25001  1
 As  As2  1  0.50000  0.50000  0.74999  1
 I  I1  1  0.00000  0.00000  0.75002  1
 I  I2  1  0.50000  0.50000  0.24998  1
