CIF file written using JARVIS-Tools package.
data_CaC2
_symmetry_space_group_name_H-M  'P-1'
_cell_length_a       6.60412
_cell_length_b       4.07724
_cell_length_c       3.75279
_cell_angle_alpha    61.3666
_cell_angle_beta     33.221
_cell_angle_gamma    63.4537

_symmetry_Int_Tables_number  2
_chemical_formula_structural  CaC2
_chemical_formula_sum  CaC2
_cell_volume  48.368408513177656
_cell_formula_units_Z  1
loop_
  _symmetry_equiv_pos_site_id
 _symmetry_equiv_pos_as_xyz
 1  'x, y, z'
loop_
 _atom_site_type_symbol
 _atom_site_label
 _atom_site_symmetry_multiplicity
 _atom_site_fract_x
 _atom_site_fract_y
 _atom_site_fract_z
 _atom_site_fract_occupancy
 C  C1  1  0.66535  0.56535  0.44191  1
 C  C2  1  0.40711  0.81936  0.73951  1
 Ca  Ca1  1  0.03622  0.19238  0.59072  1
