CIF file written using JARVIS-Tools package.
data_CaGaH
_symmetry_space_group_name_H-M  'Pmm2'
_cell_length_a       4.0183
_cell_length_b       4.69637
_cell_length_c       3.56987
_cell_angle_alpha    90
_cell_angle_beta     90
_cell_angle_gamma    89.9982

_symmetry_Int_Tables_number  25
_chemical_formula_structural  CaGaH
_chemical_formula_sum  CaGaH
_cell_volume  67.36841755257943
_cell_formula_units_Z  1
loop_
  _symmetry_equiv_pos_site_id
 _symmetry_equiv_pos_as_xyz
 1  'x, y, z'
loop_
 _atom_site_type_symbol
 _atom_site_label
 _atom_site_symmetry_multiplicity
 _atom_site_fract_x
 _atom_site_fract_y
 _atom_site_fract_z
 _atom_site_fract_occupancy
 Ca  Ca1  1  0.41722  -0.16244  0.00000  1
 Ga  Ga1  1  -0.08275  0.36952  0.00000  1
 H  H1  1  -0.08279  0.00570  0.00000  1
