CIF file written using JARVIS-Tools package.
data_ZrTlF3
_symmetry_space_group_name_H-M  'P1'
_cell_length_a       4.40873
_cell_length_b       4.407
_cell_length_c       4.39276
_cell_angle_alpha    82.0499
_cell_angle_beta     82.1094
_cell_angle_gamma    82.2614

_symmetry_Int_Tables_number  1
_chemical_formula_structural  ZrTlF3
_chemical_formula_sum  ZrTlF3
_cell_volume  83.14351218378101
_cell_formula_units_Z  1
loop_
  _symmetry_equiv_pos_site_id
 _symmetry_equiv_pos_as_xyz
 1  'x, y, z'
loop_
 _atom_site_type_symbol
 _atom_site_label
 _atom_site_symmetry_multiplicity
 _atom_site_fract_x
 _atom_site_fract_y
 _atom_site_fract_z
 _atom_site_fract_occupancy
 F  F1  1  0.01053  0.50383  0.50657  1
 F  F2  1  0.47377  0.47149  0.96266  1
 F  F3  1  0.50841  0.01035  0.50781  1
 Tl  Tl1  1  0.99348  0.99017  0.00668  1
 Zr  Zr1  1  0.51380  0.51416  0.45627  1
