CIF file written using JARVIS-Tools package.
data_CaTeO
_symmetry_space_group_name_H-M  'Pm'
_cell_length_a       4.34362
_cell_length_b       6.24601
_cell_length_c       4.77939
_cell_angle_alpha    90
_cell_angle_beta     90
_cell_angle_gamma    50.2629

_symmetry_Int_Tables_number  6
_chemical_formula_structural  CaTeO
_chemical_formula_sum  CaTeO
_cell_volume  99.7115667453704
_cell_formula_units_Z  1
loop_
  _symmetry_equiv_pos_site_id
 _symmetry_equiv_pos_as_xyz
 1  'x, y, z'
loop_
 _atom_site_type_symbol
 _atom_site_label
 _atom_site_symmetry_multiplicity
 _atom_site_fract_x
 _atom_site_fract_y
 _atom_site_fract_z
 _atom_site_fract_occupancy
 Ca  Ca1  1  -0.03745  -0.10611  0.00000  1
 O  O1  1  0.36089  0.00619  0.00000  1
 Te  Te1  1  -0.09497  0.43402  0.00000  1
