CIF file written using JARVIS-Tools package.
data_LiN
_symmetry_space_group_name_H-M  'P4/nmm'
_cell_length_a       2.60601
_cell_length_b       2.60601
_cell_length_c       6.11797
_cell_angle_alpha    90
_cell_angle_beta     90
_cell_angle_gamma    90

_symmetry_Int_Tables_number  129
_chemical_formula_structural  LiN
_chemical_formula_sum  Li2N2
_cell_volume  41.5489349590563
_cell_formula_units_Z  2
loop_
  _symmetry_equiv_pos_site_id
 _symmetry_equiv_pos_as_xyz
 1  'x, y, z'
loop_
 _atom_site_type_symbol
 _atom_site_label
 _atom_site_symmetry_multiplicity
 _atom_site_fract_x
 _atom_site_fract_y
 _atom_site_fract_z
 _atom_site_fract_occupancy
 Li  Li1  1  0.00000  0.00000  0.25775  1
 Li  Li2  1  0.50000  0.50000  0.74225  1
 N  N1  1  0.00000  0.00000  0.95164  1
 N  N2  1  0.50000  0.50000  0.04836  1
