CIF file written using JARVIS-Tools package.
data_Li2N
_symmetry_space_group_name_H-M  'Cmmm'
_cell_length_a       3.5331
_cell_length_b       2.55668
_cell_length_c       3.53413
_cell_angle_alpha    90
_cell_angle_beta     119.801
_cell_angle_gamma    90

_symmetry_Int_Tables_number  65
_chemical_formula_structural  Li2N
_chemical_formula_sum  Li2N
_cell_volume  27.702274303862996
_cell_formula_units_Z  1
loop_
  _symmetry_equiv_pos_site_id
 _symmetry_equiv_pos_as_xyz
 1  'x, y, z'
loop_
 _atom_site_type_symbol
 _atom_site_label
 _atom_site_symmetry_multiplicity
 _atom_site_fract_x
 _atom_site_fract_y
 _atom_site_fract_z
 _atom_site_fract_occupancy
 Li  Li1  1  -0.20017  0.00000  -0.19971  1
 Li  Li2  1  0.13351  0.00000  0.46638  1
 N  N1  1  0.46666  0.00000  0.13332  1
