CIF file written using JARVIS-Tools package.
data_Li3H
_symmetry_space_group_name_H-M  'P1'
_cell_length_a       2.85044
_cell_length_b       2.8763
_cell_length_c       7.67052
_cell_angle_alpha    80.4019
_cell_angle_beta     90.1504
_cell_angle_gamma    58.7288

_symmetry_Int_Tables_number  1
_chemical_formula_structural  Li3H
_chemical_formula_sum  Li3H
_cell_volume  52.7021485497671
_cell_formula_units_Z  1
loop_
  _symmetry_equiv_pos_site_id
 _symmetry_equiv_pos_as_xyz
 1  'x, y, z'
loop_
 _atom_site_type_symbol
 _atom_site_label
 _atom_site_symmetry_multiplicity
 _atom_site_fract_x
 _atom_site_fract_y
 _atom_site_fract_z
 _atom_site_fract_occupancy
 H  H1  1  0.72485  0.86057  0.54773  1
 Li  Li1  1  0.22329  -0.13987  0.04775  1
 Li  Li2  1  0.43728  0.42727  0.70320  1
 Li  Li3  1  0.01206  0.29404  0.39220  1
