CIF file written using JARVIS-Tools package.
data_NiHCl2
_symmetry_space_group_name_H-M  'P4mm'
_cell_length_a       3.68429
_cell_length_b       3.68429
_cell_length_c       4.53937
_cell_angle_alpha    90
_cell_angle_beta     90
_cell_angle_gamma    90

_symmetry_Int_Tables_number  99
_chemical_formula_structural  NiHCl2
_chemical_formula_sum  NiHCl2
_cell_volume  61.617249980915965
_cell_formula_units_Z  1
loop_
  _symmetry_equiv_pos_site_id
 _symmetry_equiv_pos_as_xyz
 1  'x, y, z'
loop_
 _atom_site_type_symbol
 _atom_site_label
 _atom_site_symmetry_multiplicity
 _atom_site_fract_x
 _atom_site_fract_y
 _atom_site_fract_z
 _atom_site_fract_occupancy
 Cl  Cl1  1  0.00000  0.00000  0.56052  1
 Cl  Cl2  1  0.50000  0.50000  0.04914  1
 H  H1  1  0.00000  0.00000  0.85032  1
 Ni  Ni1  1  0.50000  0.50000  0.55002  1
