CIF file written using JARVIS-Tools package.
data_SNCl
_symmetry_space_group_name_H-M  'Pm'
_cell_length_a       6.061
_cell_length_b       6.15131
_cell_length_c       3.77005
_cell_angle_alpha    90
_cell_angle_beta     90
_cell_angle_gamma    142.994

_symmetry_Int_Tables_number  6
_chemical_formula_structural  SNCl
_chemical_formula_sum  SNCl
_cell_volume  84.60245524398563
_cell_formula_units_Z  1
loop_
  _symmetry_equiv_pos_site_id
 _symmetry_equiv_pos_as_xyz
 1  'x, y, z'
loop_
 _atom_site_type_symbol
 _atom_site_label
 _atom_site_symmetry_multiplicity
 _atom_site_fract_x
 _atom_site_fract_y
 _atom_site_fract_z
 _atom_site_fract_occupancy
 Cl  Cl1  1  -0.35131  -0.29484  0.00000  1
 N  N1  1  0.33786  -0.06581  0.00000  1
 S  S1  1  0.21415  0.61140  0.00000  1
