CIF file written using JARVIS-Tools package.
data_Cl2O
_symmetry_space_group_name_H-M  'Pmm2'
_cell_length_a       4.07451
_cell_length_b       3.1728
_cell_length_c       4.88712
_cell_angle_alpha    90
_cell_angle_beta     89.9842
_cell_angle_gamma    90

_symmetry_Int_Tables_number  25
_chemical_formula_structural  Cl2O
_chemical_formula_sum  Cl2O
_cell_volume  63.17859533533053
_cell_formula_units_Z  1
loop_
  _symmetry_equiv_pos_site_id
 _symmetry_equiv_pos_as_xyz
 1  'x, y, z'
loop_
 _atom_site_type_symbol
 _atom_site_label
 _atom_site_symmetry_multiplicity
 _atom_site_fract_x
 _atom_site_fract_y
 _atom_site_fract_z
 _atom_site_fract_occupancy
 Cl  Cl1  1  0.05716  0.00000  -0.03323  1
 Cl  Cl2  1  -0.08730  0.00000  0.46666  1
 O  O1  1  0.43014  0.00000  -0.03343  1
