CIF file written using JARVIS-Tools package.
data_AsN2
_symmetry_space_group_name_H-M  'Pmmm'
_cell_length_a       2.85286
_cell_length_b       2.8185
_cell_length_c       4.99053
_cell_angle_alpha    90
_cell_angle_beta     90
_cell_angle_gamma    90

_symmetry_Int_Tables_number  47
_chemical_formula_structural  AsN2
_chemical_formula_sum  AsN2
_cell_volume  40.12787785505759
_cell_formula_units_Z  1
loop_
  _symmetry_equiv_pos_site_id
 _symmetry_equiv_pos_as_xyz
 1  'x, y, z'
loop_
 _atom_site_type_symbol
 _atom_site_label
 _atom_site_symmetry_multiplicity
 _atom_site_fract_x
 _atom_site_fract_y
 _atom_site_fract_z
 _atom_site_fract_occupancy
 As  As1  1  0.80017  0.00000  0.00000  1
 N  N1  1  -0.20009  0.00000  0.38853  1
 N  N2  1  -0.20009  0.00000  0.61147  1
