CIF file written using JARVIS-Tools package.
data_YAgO
_symmetry_space_group_name_H-M  'Pmmm'
_cell_length_a       4.62676
_cell_length_b       6.28686
_cell_length_c       3.53682
_cell_angle_alpha    90
_cell_angle_beta     90
_cell_angle_gamma    42.8034

_symmetry_Int_Tables_number  47
_chemical_formula_structural  YAgO
_chemical_formula_sum  YAgO
_cell_volume  69.9042590082519
_cell_formula_units_Z  1
loop_
  _symmetry_equiv_pos_site_id
 _symmetry_equiv_pos_as_xyz
 1  'x, y, z'
loop_
 _atom_site_type_symbol
 _atom_site_label
 _atom_site_symmetry_multiplicity
 _atom_site_fract_x
 _atom_site_fract_y
 _atom_site_fract_z
 _atom_site_fract_occupancy
 Ag  Ag1  1  -0.06628  -0.05299  0.00000  1
 O  O1  1  0.43372  -0.05298  0.00000  1
 Y  Y1  1  -0.06625  0.44701  0.00000  1
