CIF file written using JARVIS-Tools package.
data_Al2As
_symmetry_space_group_name_H-M  'Amm2'
_cell_length_a       5.03754
_cell_length_b       5.03394
_cell_length_c       3.75014
_cell_angle_alpha    89.9989
_cell_angle_beta     89.9993
_cell_angle_gamma    44.7809

_symmetry_Int_Tables_number  38
_chemical_formula_structural  Al2As
_chemical_formula_sum  Al2As
_cell_volume  66.98722036659798
_cell_formula_units_Z  1
loop_
  _symmetry_equiv_pos_site_id
 _symmetry_equiv_pos_as_xyz
 1  'x, y, z'
loop_
 _atom_site_type_symbol
 _atom_site_label
 _atom_site_symmetry_multiplicity
 _atom_site_fract_x
 _atom_site_fract_y
 _atom_site_fract_z
 _atom_site_fract_occupancy
 Al  Al1  1  0.44738  0.37678  0.33578  1
 Al  Al2  1  0.17114  0.10128  0.33598  1
 As  As1  1  0.98453  -0.08560  -0.16405  1
