CIF file written using JARVIS-Tools package.
data_NaMoF
_symmetry_space_group_name_H-M  'Pmmm'
_cell_length_a       4.36665
_cell_length_b       4.34268
_cell_length_c       2.52768
_cell_angle_alpha    90
_cell_angle_beta     90
_cell_angle_gamma    89.9965

_symmetry_Int_Tables_number  47
_chemical_formula_structural  NaMoF
_chemical_formula_sum  NaMoF
_cell_volume  47.932150279957575
_cell_formula_units_Z  1
loop_
  _symmetry_equiv_pos_site_id
 _symmetry_equiv_pos_as_xyz
 1  'x, y, z'
loop_
 _atom_site_type_symbol
 _atom_site_label
 _atom_site_symmetry_multiplicity
 _atom_site_fract_x
 _atom_site_fract_y
 _atom_site_fract_z
 _atom_site_fract_occupancy
 F  F1  1  -0.09021  -0.08405  0.00000  1
 Mo  Mo1  1  0.40979  -0.08410  0.00000  1
 Na  Na1  1  -0.09024  0.41594  0.00000  1
