CIF file written using JARVIS-Tools package.
data_CaAlH2
_symmetry_space_group_name_H-M  'P4mm'
_cell_length_a       3.31465
_cell_length_b       3.31465
_cell_length_c       4.74387
_cell_angle_alpha    90
_cell_angle_beta     90
_cell_angle_gamma    90

_symmetry_Int_Tables_number  99
_chemical_formula_structural  CaAlH2
_chemical_formula_sum  CaAlH2
_cell_volume  52.12046013905312
_cell_formula_units_Z  1
loop_
  _symmetry_equiv_pos_site_id
 _symmetry_equiv_pos_as_xyz
 1  'x, y, z'
loop_
 _atom_site_type_symbol
 _atom_site_label
 _atom_site_symmetry_multiplicity
 _atom_site_fract_x
 _atom_site_fract_y
 _atom_site_fract_z
 _atom_site_fract_occupancy
 Al  Al1  1  0.00000  0.00000  0.00784  1
 Ca  Ca1  1  0.50000  0.50000  0.56155  1
 H  H1  1  0.00000  0.00000  0.36962  1
 H  H2  1  0.50000  0.50000  0.07099  1
