CIF file written using JARVIS-Tools package.
data_GeP
_symmetry_space_group_name_H-M  'C2/m'
_cell_length_a       5.32686
_cell_length_b       6.01355
_cell_length_c       3.75447
_cell_angle_alpha    51.4121
_cell_angle_beta     110.721
_cell_angle_gamma    115.436

_symmetry_Int_Tables_number  12
_chemical_formula_structural  GeP
_chemical_formula_sum  Ge2P2
_cell_volume  84.26376177568484
_cell_formula_units_Z  2
loop_
  _symmetry_equiv_pos_site_id
 _symmetry_equiv_pos_as_xyz
 1  'x, y, z'
loop_
 _atom_site_type_symbol
 _atom_site_label
 _atom_site_symmetry_multiplicity
 _atom_site_fract_x
 _atom_site_fract_y
 _atom_site_fract_z
 _atom_site_fract_occupancy
 Ge  Ge1  1  0.08394  0.15620  0.02667  1
 Ge  Ge2  1  0.61649  0.25919  0.69069  1
 P  P1  1  0.52981  0.53844  0.86819  1
 P  P2  1  0.17062  0.87695  0.84917  1
