CIF file written using JARVIS-Tools package.
data_GePbS
_symmetry_space_group_name_H-M  'Pm'
_cell_length_a       5.94986
_cell_length_b       5.66501
_cell_length_c       3.13485
_cell_angle_alpha    90
_cell_angle_beta     90
_cell_angle_gamma    60.4804

_symmetry_Int_Tables_number  6
_chemical_formula_structural  GePbS
_chemical_formula_sum  GePbS
_cell_volume  91.94678778525503
_cell_formula_units_Z  1
loop_
  _symmetry_equiv_pos_site_id
 _symmetry_equiv_pos_as_xyz
 1  'x, y, z'
loop_
 _atom_site_type_symbol
 _atom_site_label
 _atom_site_symmetry_multiplicity
 _atom_site_fract_x
 _atom_site_fract_y
 _atom_site_fract_z
 _atom_site_fract_occupancy
 Ge  Ge1  1  -0.05516  -0.02967  0.00000  1
 Pb  Pb1  1  0.47813  -0.09981  0.00000  1
 S  S1  1  -0.08898  0.38648  0.00000  1
