CIF file written using JARVIS-Tools package.
data_RbHO
_symmetry_space_group_name_H-M  'Pm'
_cell_length_a       4.20964
_cell_length_b       5.53104
_cell_length_c       4.46898
_cell_angle_alpha    90
_cell_angle_beta     90
_cell_angle_gamma    130.787

_symmetry_Int_Tables_number  6
_chemical_formula_structural  RbHO
_chemical_formula_sum  RbHO
_cell_volume  78.78322298607962
_cell_formula_units_Z  1
loop_
  _symmetry_equiv_pos_site_id
 _symmetry_equiv_pos_as_xyz
 1  'x, y, z'
loop_
 _atom_site_type_symbol
 _atom_site_label
 _atom_site_symmetry_multiplicity
 _atom_site_fract_x
 _atom_site_fract_y
 _atom_site_fract_z
 _atom_site_fract_occupancy
 H  H1  1  -0.09762  -0.13513  0.00000  1
 O  O1  1  0.20705  0.01529  0.00000  1
 Rb  Rb1  1  0.01840  0.42168  0.00000  1
