CIF file written using JARVIS-Tools package.
data_BaNaB
_symmetry_space_group_name_H-M  'Pmmm'
_cell_length_a       5.53251
_cell_length_b       7.66892
_cell_length_c       3.76415
_cell_angle_alpha    90
_cell_angle_beta     90
_cell_angle_gamma    43.9769

_symmetry_Int_Tables_number  47
_chemical_formula_structural  BaNaB
_chemical_formula_sum  BaNaB
_cell_volume  110.89549806912531
_cell_formula_units_Z  1
loop_
  _symmetry_equiv_pos_site_id
 _symmetry_equiv_pos_as_xyz
 1  'x, y, z'
loop_
 _atom_site_type_symbol
 _atom_site_label
 _atom_site_symmetry_multiplicity
 _atom_site_fract_x
 _atom_site_fract_y
 _atom_site_fract_z
 _atom_site_fract_occupancy
 B  B1  1  0.42402  -0.04484  0.00000  1
 Ba  Ba1  1  -0.07595  -0.04489  0.00000  1
 Na  Na1  1  -0.07604  0.45516  0.00000  1
