CIF file written using JARVIS-Tools package.
data_BH
_symmetry_space_group_name_H-M  'Pmmn'
_cell_length_a       2.8282
_cell_length_b       4.78275
_cell_length_c       1.94498
_cell_angle_alpha    90.0077
_cell_angle_beta     89.9934
_cell_angle_gamma    90.0115

_symmetry_Int_Tables_number  59
_chemical_formula_structural  BH
_chemical_formula_sum  B2H2
_cell_volume  26.308932526434617
_cell_formula_units_Z  2
loop_
  _symmetry_equiv_pos_site_id
 _symmetry_equiv_pos_as_xyz
 1  'x, y, z'
loop_
 _atom_site_type_symbol
 _atom_site_label
 _atom_site_symmetry_multiplicity
 _atom_site_fract_x
 _atom_site_fract_y
 _atom_site_fract_z
 _atom_site_fract_occupancy
 B  B1  1  0.23491  0.14345  0.05556  1
 B  B2  1  0.73496  0.31161  0.55562  1
 H  H1  1  0.73503  0.55742  0.55570  1
 H  H2  1  0.23486  0.89765  0.05546  1
