CIF file written using JARVIS-Tools package.
data_KSn
_symmetry_space_group_name_H-M  'P4/mmm'
_cell_length_a       3.33046
_cell_length_b       3.33046
_cell_length_c       6.77267
_cell_angle_alpha    90
_cell_angle_beta     90
_cell_angle_gamma    90

_symmetry_Int_Tables_number  123
_chemical_formula_structural  KSn
_chemical_formula_sum  KSn
_cell_volume  75.12221477855181
_cell_formula_units_Z  1
loop_
  _symmetry_equiv_pos_site_id
 _symmetry_equiv_pos_as_xyz
 1  'x, y, z'
loop_
 _atom_site_type_symbol
 _atom_site_label
 _atom_site_symmetry_multiplicity
 _atom_site_fract_x
 _atom_site_fract_y
 _atom_site_fract_z
 _atom_site_fract_occupancy
 K  K1  1  0.00000  0.00000  0.75001  1
 Sn  Sn1  1  0.00000  0.00000  0.24999  1
