CIF file written using JARVIS-Tools package.
data_K2Se
_symmetry_space_group_name_H-M  'Immm'
_cell_length_a       7.6524
_cell_length_b       5.40366
_cell_length_c       5.39039
_cell_angle_alpha    60.1458
_cell_angle_beta     90.0089
_cell_angle_gamma    44.9436

_symmetry_Int_Tables_number  71
_chemical_formula_structural  K2Se
_chemical_formula_sum  K2Se
_cell_volume  111.69508041460188
_cell_formula_units_Z  1
loop_
  _symmetry_equiv_pos_site_id
 _symmetry_equiv_pos_as_xyz
 1  'x, y, z'
loop_
 _atom_site_type_symbol
 _atom_site_label
 _atom_site_symmetry_multiplicity
 _atom_site_fract_x
 _atom_site_fract_y
 _atom_site_fract_z
 _atom_site_fract_occupancy
 K  K1  1  0.77021  0.11179  0.01023  1
 K  K2  1  0.27121  0.11152  0.01032  1
 Se  Se1  1  0.02067  0.11170  0.51024  1
