CIF file written using JARVIS-Tools package.
data_B2H
_symmetry_space_group_name_H-M  'Immm'
_cell_length_a       3.99598
_cell_length_b       1.75814
_cell_length_c       4.00253
_cell_angle_alpha    102.931
_cell_angle_beta     130.514
_cell_angle_gamma    102.474

_symmetry_Int_Tables_number  71
_chemical_formula_structural  B2H
_chemical_formula_sum  B2H
_cell_volume  18.189945872479495
_cell_formula_units_Z  1
loop_
  _symmetry_equiv_pos_site_id
 _symmetry_equiv_pos_as_xyz
 1  'x, y, z'
loop_
 _atom_site_type_symbol
 _atom_site_label
 _atom_site_symmetry_multiplicity
 _atom_site_fract_x
 _atom_site_fract_y
 _atom_site_fract_z
 _atom_site_fract_occupancy
 B  B1  1  0.23275  0.02610  0.66802  1
 B  B2  1  0.84326  0.02514  0.05714  1
 H  H1  1  0.03800  0.02560  0.86256  1
