CIF file written using JARVIS-Tools package.
data_BaSiCl
_symmetry_space_group_name_H-M  'Amm2'
_cell_length_a       5.32488
_cell_length_b       6.23813
_cell_length_c       3.83748
_cell_angle_alpha    90
_cell_angle_beta     90
_cell_angle_gamma    54.2397

_symmetry_Int_Tables_number  38
_chemical_formula_structural  BaSiCl
_chemical_formula_sum  BaSiCl
_cell_volume  103.43844862080788
_cell_formula_units_Z  1
loop_
  _symmetry_equiv_pos_site_id
 _symmetry_equiv_pos_as_xyz
 1  'x, y, z'
loop_
 _atom_site_type_symbol
 _atom_site_label
 _atom_site_symmetry_multiplicity
 _atom_site_fract_x
 _atom_site_fract_y
 _atom_site_fract_z
 _atom_site_fract_occupancy
 Ba  Ba1  1  0.11952  -0.21308  0.00000  1
 Cl  Cl1  1  0.36941  0.16215  0.00000  1
 Si  Si1  1  -0.15177  0.42204  0.00000  1
