CIF file written using JARVIS-Tools package.
data_YBeBr
_symmetry_space_group_name_H-M  'Pmm2'
_cell_length_a       3.54577
_cell_length_b       6.7241
_cell_length_c       3.43977
_cell_angle_alpha    90
_cell_angle_beta     90
_cell_angle_gamma    89.9945

_symmetry_Int_Tables_number  25
_chemical_formula_structural  YBeBr
_chemical_formula_sum  YBeBr
_cell_volume  82.0112307362618
_cell_formula_units_Z  1
loop_
  _symmetry_equiv_pos_site_id
 _symmetry_equiv_pos_as_xyz
 1  'x, y, z'
loop_
 _atom_site_type_symbol
 _atom_site_label
 _atom_site_symmetry_multiplicity
 _atom_site_fract_x
 _atom_site_fract_y
 _atom_site_fract_z
 _atom_site_fract_occupancy
 Be  Be1  1  0.24973  -0.24178  0.00000  1
 Br  Br1  1  0.24983  0.08503  0.00000  1
 Y  Y1  1  -0.25023  0.42878  0.00000  1
