CIF file written using JARVIS-Tools package.
data_AgAsO2
_symmetry_space_group_name_H-M  'P4mm'
_cell_length_a       3.2168
_cell_length_b       3.2168
_cell_length_c       5.22881
_cell_angle_alpha    90
_cell_angle_beta     90
_cell_angle_gamma    90

_symmetry_Int_Tables_number  99
_chemical_formula_structural  AgAsO2
_chemical_formula_sum  AgAsO2
_cell_volume  54.106736331643205
_cell_formula_units_Z  1
loop_
  _symmetry_equiv_pos_site_id
 _symmetry_equiv_pos_as_xyz
 1  'x, y, z'
loop_
 _atom_site_type_symbol
 _atom_site_label
 _atom_site_symmetry_multiplicity
 _atom_site_fract_x
 _atom_site_fract_y
 _atom_site_fract_z
 _atom_site_fract_occupancy
 Ag  Ag1  1  0.50000  0.50000  0.56876  1
 As  As1  1  0.00000  0.00000  0.04668  1
 O  O1  1  0.00000  0.00000  0.37744  1
 O  O2  1  0.50000  0.50000  0.01712  1
