CIF file written using JARVIS-Tools package.
data_BeVCl
_symmetry_space_group_name_H-M  'Pm'
_cell_length_a       4.5244
_cell_length_b       4.53778
_cell_length_c       2.7402
_cell_angle_alpha    90
_cell_angle_beta     90
_cell_angle_gamma    71.9794

_symmetry_Int_Tables_number  6
_chemical_formula_structural  BeVCl
_chemical_formula_sum  BeVCl
_cell_volume  53.498654354817916
_cell_formula_units_Z  1
loop_
  _symmetry_equiv_pos_site_id
 _symmetry_equiv_pos_as_xyz
 1  'x, y, z'
loop_
 _atom_site_type_symbol
 _atom_site_label
 _atom_site_symmetry_multiplicity
 _atom_site_fract_x
 _atom_site_fract_y
 _atom_site_fract_z
 _atom_site_fract_occupancy
 Be  Be1  1  0.38686  0.01370  0.00000  1
 Cl  Cl1  1  -0.05293  0.37359  0.00000  1
 V  V1  1  -0.07778  -0.12300  0.00000  1
