CIF file written using JARVIS-Tools package.
data_LiBeSe
_symmetry_space_group_name_H-M  'Pm'
_cell_length_a       6.34776
_cell_length_b       3.73511
_cell_length_c       3.96967
_cell_angle_alpha    90
_cell_angle_beta     90
_cell_angle_gamma    54.641

_symmetry_Int_Tables_number  6
_chemical_formula_structural  LiBeSe
_chemical_formula_sum  LiBeSe
_cell_volume  76.75815026781538
_cell_formula_units_Z  1
loop_
  _symmetry_equiv_pos_site_id
 _symmetry_equiv_pos_as_xyz
 1  'x, y, z'
loop_
 _atom_site_type_symbol
 _atom_site_label
 _atom_site_symmetry_multiplicity
 _atom_site_fract_x
 _atom_site_fract_y
 _atom_site_fract_z
 _atom_site_fract_occupancy
 Be  Be1  1  -0.19101  0.02742  0.00000  1
 Li  Li1  1  0.47281  -0.14207  0.00000  1
 Se  Se1  1  -0.01304  0.35243  0.00000  1
