CIF file written using JARVIS-Tools package.
data_HBrO2
_symmetry_space_group_name_H-M  'P4mm'
_cell_length_a       3.61771
_cell_length_b       3.61771
_cell_length_c       4.17979
_cell_angle_alpha    90
_cell_angle_beta     90
_cell_angle_gamma    90

_symmetry_Int_Tables_number  99
_chemical_formula_structural  HBrO2
_chemical_formula_sum  HBrO2
_cell_volume  54.70453027704973
_cell_formula_units_Z  1
loop_
  _symmetry_equiv_pos_site_id
 _symmetry_equiv_pos_as_xyz
 1  'x, y, z'
loop_
 _atom_site_type_symbol
 _atom_site_label
 _atom_site_symmetry_multiplicity
 _atom_site_fract_x
 _atom_site_fract_y
 _atom_site_fract_z
 _atom_site_fract_occupancy
 Br  Br1  1  0.00000  0.00000  0.99314  1
 H  H1  1  0.50000  0.50000  0.69088  1
 O  O1  1  0.00000  0.00000  0.39811  1
 O  O2  1  0.50000  0.50000  0.92787  1
