CIF file written using JARVIS-Tools package.
data_Cl2O
_symmetry_space_group_name_H-M  'P1'
_cell_length_a       5.41302
_cell_length_b       3.58435
_cell_length_c       3.96701
_cell_angle_alpha    66.7352
_cell_angle_beta     108.78
_cell_angle_gamma    115.993

_symmetry_Int_Tables_number  1
_chemical_formula_structural  Cl2O
_chemical_formula_sum  Cl2O
_cell_volume  62.51704646924099
_cell_formula_units_Z  1
loop_
  _symmetry_equiv_pos_site_id
 _symmetry_equiv_pos_as_xyz
 1  'x, y, z'
loop_
 _atom_site_type_symbol
 _atom_site_label
 _atom_site_symmetry_multiplicity
 _atom_site_fract_x
 _atom_site_fract_y
 _atom_site_fract_z
 _atom_site_fract_occupancy
 Cl  Cl1  1  0.53756  0.75937  0.72767  1
 Cl  Cl2  1  0.09642  0.70967  0.54330  1
 O  O1  1  0.02156  0.00117  0.14855  1
