CIF file written using JARVIS-Tools package.
data_ClO2
_symmetry_space_group_name_H-M  'P1'
_cell_length_a       4.1482
_cell_length_b       2.87543
_cell_length_c       4.27883
_cell_angle_alpha    70.942
_cell_angle_beta     93.5791
_cell_angle_gamma    109.235

_symmetry_Int_Tables_number  1
_chemical_formula_structural  ClO2
_chemical_formula_sum  ClO2
_cell_volume  45.488566234868294
_cell_formula_units_Z  1
loop_
  _symmetry_equiv_pos_site_id
 _symmetry_equiv_pos_as_xyz
 1  'x, y, z'
loop_
 _atom_site_type_symbol
 _atom_site_label
 _atom_site_symmetry_multiplicity
 _atom_site_fract_x
 _atom_site_fract_y
 _atom_site_fract_z
 _atom_site_fract_occupancy
 Cl  Cl1  1  -0.05464  0.91110  0.00170  1
 O  O1  1  0.57255  0.68433  0.09801  1
 O  O2  1  0.03356  0.13156  0.63858  1
