CIF file written using JARVIS-Tools package.
data_SrHBr3
_symmetry_space_group_name_H-M  'P1'
_cell_length_a       4.51274
_cell_length_b       5.93202
_cell_length_c       6.56861
_cell_angle_alpha    107.867
_cell_angle_beta     104.944
_cell_angle_gamma    94.4418

_symmetry_Int_Tables_number  1
_chemical_formula_structural  SrHBr3
_chemical_formula_sum  SrHBr3
_cell_volume  159.33831219732954
_cell_formula_units_Z  1
loop_
  _symmetry_equiv_pos_site_id
 _symmetry_equiv_pos_as_xyz
 1  'x, y, z'
loop_
 _atom_site_type_symbol
 _atom_site_label
 _atom_site_symmetry_multiplicity
 _atom_site_fract_x
 _atom_site_fract_y
 _atom_site_fract_z
 _atom_site_fract_occupancy
 Br  Br1  1  0.70132  0.68621  0.01635  1
 Br  Br2  1  0.28316  0.33663  0.40082  1
 Br  Br3  1  0.98813  0.97477  0.69200  1
 H  H1  1  0.88764  0.80346  0.80564  1
 Sr  Sr1  1  0.64648  0.20965  0.08269  1
