CIF file written using JARVIS-Tools package.
data_HBrO
_symmetry_space_group_name_H-M  'Pm'
_cell_length_a       4.59143
_cell_length_b       3.96283
_cell_length_c       3.82628
_cell_angle_alpha    90
_cell_angle_beta     90
_cell_angle_gamma    118.552

_symmetry_Int_Tables_number  6
_chemical_formula_structural  HBrO
_chemical_formula_sum  HBrO
_cell_volume  61.152328213031254
_cell_formula_units_Z  1
loop_
  _symmetry_equiv_pos_site_id
 _symmetry_equiv_pos_as_xyz
 1  'x, y, z'
loop_
 _atom_site_type_symbol
 _atom_site_label
 _atom_site_symmetry_multiplicity
 _atom_site_fract_x
 _atom_site_fract_y
 _atom_site_fract_z
 _atom_site_fract_occupancy
 Br  Br1  1  0.23046  0.04522  0.00000  1
 H  H1  1  -0.07048  0.38602  0.00000  1
 O  O1  1  0.84001  0.56876  0.00000  1
