CIF file written using JARVIS-Tools package.
data_TiPCl2
_symmetry_space_group_name_H-M  'P4mm'
_cell_length_a       3.46225
_cell_length_b       3.46225
_cell_length_c       7.54492
_cell_angle_alpha    90
_cell_angle_beta     90
_cell_angle_gamma    90

_symmetry_Int_Tables_number  99
_chemical_formula_structural  TiPCl2
_chemical_formula_sum  TiPCl2
_cell_volume  90.4422746983828
_cell_formula_units_Z  1
loop_
  _symmetry_equiv_pos_site_id
 _symmetry_equiv_pos_as_xyz
 1  'x, y, z'
loop_
 _atom_site_type_symbol
 _atom_site_label
 _atom_site_symmetry_multiplicity
 _atom_site_fract_x
 _atom_site_fract_y
 _atom_site_fract_z
 _atom_site_fract_occupancy
 Cl  Cl1  1  0.00000  0.00000  0.42727  1
 Cl  Cl2  1  0.50000  0.50000  0.08201  1
 P  P1  1  0.00000  0.00000  0.70952  1
 Ti  Ti1  1  0.50000  0.50000  0.79120  1
