CIF file written using JARVIS-Tools package.
data_CuSbO
_symmetry_space_group_name_H-M  'Pmm2'
_cell_length_a       6.01278
_cell_length_b       3.5218
_cell_length_c       3.10982
_cell_angle_alpha    90
_cell_angle_beta     90
_cell_angle_gamma    125.492

_symmetry_Int_Tables_number  25
_chemical_formula_structural  CuSbO
_chemical_formula_sum  CuSbO
_cell_volume  53.617613946679874
_cell_formula_units_Z  1
loop_
  _symmetry_equiv_pos_site_id
 _symmetry_equiv_pos_as_xyz
 1  'x, y, z'
loop_
 _atom_site_type_symbol
 _atom_site_label
 _atom_site_symmetry_multiplicity
 _atom_site_fract_x
 _atom_site_fract_y
 _atom_site_fract_z
 _atom_site_fract_occupancy
 Cu  Cu1  1  0.24922  -0.08409  0.00000  1
 O  O1  1  0.08669  0.25457  0.00000  1
 Sb  Sb1  1  0.66409  0.82952  0.00000  1
