CIF file written using JARVIS-Tools package.
data_YCl2O
_symmetry_space_group_name_H-M  'Immm'
_cell_length_a       6.30696
_cell_length_b       6.30696
_cell_length_c       6.30696
_cell_angle_alpha    143.213
_cell_angle_beta     140.506
_cell_angle_gamma    55.0716

_symmetry_Int_Tables_number  71
_chemical_formula_structural  YCl2O
_chemical_formula_sum  YCl2O
_cell_volume  94.86704480732266
_cell_formula_units_Z  1
loop_
  _symmetry_equiv_pos_site_id
 _symmetry_equiv_pos_as_xyz
 1  'x, y, z'
loop_
 _atom_site_type_symbol
 _atom_site_label
 _atom_site_symmetry_multiplicity
 _atom_site_fract_x
 _atom_site_fract_y
 _atom_site_fract_z
 _atom_site_fract_occupancy
 Cl  Cl1  1  0.16245  0.66245  0.50000  1
 Cl  Cl2  1  0.83755  0.33755  0.50000  1
 O  O1  1  0.50000  -0.00000  0.50000  1
 Y  Y1  1  0.00000  0.00000  0.00000  1
