CIF file written using JARVIS-Tools package.
data_Ni3Mo2P
_symmetry_space_group_name_H-M  'P6_3/mmc'
_cell_length_a       4.76964
_cell_length_b       4.76963
_cell_length_c       7.40204
_cell_angle_alpha    90
_cell_angle_beta     90
_cell_angle_gamma    120

_symmetry_Int_Tables_number  194
_chemical_formula_structural  Ni3Mo2P
_chemical_formula_sum  Ni6Mo4P2
_cell_volume  145.83175466085896
_cell_formula_units_Z  2
loop_
  _symmetry_equiv_pos_site_id
 _symmetry_equiv_pos_as_xyz
 1  'x, y, z'
loop_
 _atom_site_type_symbol
 _atom_site_label
 _atom_site_symmetry_multiplicity
 _atom_site_fract_x
 _atom_site_fract_y
 _atom_site_fract_z
 _atom_site_fract_occupancy
 Mo  Mo1  1  0.33333  0.66667  0.43535  1
 Mo  Mo2  1  0.66667  0.33333  0.56465  1
 Mo  Mo3  1  0.66667  0.33333  0.93535  1
 Mo  Mo4  1  0.33333  0.66667  0.06465  1
 Ni  Ni1  1  0.83164  0.16836  0.25000  1
 Ni  Ni2  1  0.83164  0.66328  0.25000  1
 Ni  Ni3  1  0.33672  0.16836  0.25000  1
 Ni  Ni4  1  0.16836  0.83164  0.75000  1
 Ni  Ni5  1  0.16836  0.33672  0.75000  1
 Ni  Ni6  1  0.66328  0.83164  0.75000  1
 P  P1  1  0.00000  0.00000  0.50000  1
 P  P2  1  0.00000  0.00000  0.00000  1
