CIF file written using JARVIS-Tools package.
data_Ga2P
_symmetry_space_group_name_H-M  'C222'
_cell_length_a       6.1372
_cell_length_b       3.82829
_cell_length_c       4.70592
_cell_angle_alpha    90.0378
_cell_angle_beta     40.0086
_cell_angle_gamma    70.61

_symmetry_Int_Tables_number  21
_chemical_formula_structural  Ga2P
_chemical_formula_sum  Ga2P
_cell_volume  60.83771949186393
_cell_formula_units_Z  1
loop_
  _symmetry_equiv_pos_site_id
 _symmetry_equiv_pos_as_xyz
 1  'x, y, z'
loop_
 _atom_site_type_symbol
 _atom_site_label
 _atom_site_symmetry_multiplicity
 _atom_site_fract_x
 _atom_site_fract_y
 _atom_site_fract_z
 _atom_site_fract_occupancy
 Ga  Ga1  1  0.49089  0.50734  0.75678  1
 Ga  Ga2  1  0.99101  0.50781  0.62801  1
 P  P1  1  0.99102  0.00795  0.94227  1
