CIF file written using JARVIS-Tools package.
data_SbOF
_symmetry_space_group_name_H-M  'P4/nmm'
_cell_length_a       3.90123
_cell_length_b       3.90123
_cell_length_c       5.67536
_cell_angle_alpha    90
_cell_angle_beta     90
_cell_angle_gamma    90

_symmetry_Int_Tables_number  129
_chemical_formula_structural  SbOF
_chemical_formula_sum  Sb2O2F2
_cell_volume  86.37664997413397
_cell_formula_units_Z  2
loop_
  _symmetry_equiv_pos_site_id
 _symmetry_equiv_pos_as_xyz
 1  'x, y, z'
loop_
 _atom_site_type_symbol
 _atom_site_label
 _atom_site_symmetry_multiplicity
 _atom_site_fract_x
 _atom_site_fract_y
 _atom_site_fract_z
 _atom_site_fract_occupancy
 F  F1  1  0.00000  0.00000  0.00000  1
 F  F2  1  0.50000  0.50000  0.00000  1
 O  O1  1  0.00000  0.00000  0.50000  1
 O  O2  1  0.50000  0.50000  0.50000  1
 Sb  Sb1  1  0.50000  0.00000  0.28578  1
 Sb  Sb2  1  0.00000  0.50000  0.71422  1
