CIF file written using JARVIS-Tools package.
data_Ga2P
_symmetry_space_group_name_H-M  'Pmmm'
_cell_length_a       3.81429
_cell_length_b       2.67083
_cell_length_c       6.07689
_cell_angle_alpha    90
_cell_angle_beta     90
_cell_angle_gamma    90

_symmetry_Int_Tables_number  47
_chemical_formula_structural  Ga2P
_chemical_formula_sum  Ga2P
_cell_volume  61.90737337307919
_cell_formula_units_Z  1
loop_
  _symmetry_equiv_pos_site_id
 _symmetry_equiv_pos_as_xyz
 1  'x, y, z'
loop_
 _atom_site_type_symbol
 _atom_site_label
 _atom_site_symmetry_multiplicity
 _atom_site_fract_x
 _atom_site_fract_y
 _atom_site_fract_z
 _atom_site_fract_occupancy
 Ga  Ga1  1  -0.03334  0.00000  0.72228  1
 Ga  Ga2  1  -0.03334  0.00000  0.27772  1
 P  P1  1  0.46668  0.00000  0.00000  1
