CIF file written using JARVIS-Tools package.
data_HgC3
_symmetry_space_group_name_H-M  'P1'
_cell_length_a       3.47471
_cell_length_b       3.42795
_cell_length_c       6.22665
_cell_angle_alpha    74.0799
_cell_angle_beta     106.122
_cell_angle_gamma    119.915

_symmetry_Int_Tables_number  1
_chemical_formula_structural  HgC3
_chemical_formula_sum  HgC3
_cell_volume  60.92966182665902
_cell_formula_units_Z  1
loop_
  _symmetry_equiv_pos_site_id
 _symmetry_equiv_pos_as_xyz
 1  'x, y, z'
loop_
 _atom_site_type_symbol
 _atom_site_label
 _atom_site_symmetry_multiplicity
 _atom_site_fract_x
 _atom_site_fract_y
 _atom_site_fract_z
 _atom_site_fract_occupancy
 C  C1  1  0.77292  0.91052  0.70935  1
 C  C2  1  0.70071  -0.01877  0.49523  1
 C  C3  1  0.62449  0.05453  0.27107  1
 Hg  Hg1  1  0.89745  0.79388  0.06849  1
