CIF file written using JARVIS-Tools package.
data_INO2
_symmetry_space_group_name_H-M  'P4mm'
_cell_length_a       4.19438
_cell_length_b       4.19438
_cell_length_c       3.9683
_cell_angle_alpha    90
_cell_angle_beta     90
_cell_angle_gamma    90

_symmetry_Int_Tables_number  99
_chemical_formula_structural  INO2
_chemical_formula_sum  INO2
_cell_volume  69.81360644885649
_cell_formula_units_Z  1
loop_
  _symmetry_equiv_pos_site_id
 _symmetry_equiv_pos_as_xyz
 1  'x, y, z'
loop_
 _atom_site_type_symbol
 _atom_site_label
 _atom_site_symmetry_multiplicity
 _atom_site_fract_x
 _atom_site_fract_y
 _atom_site_fract_z
 _atom_site_fract_occupancy
 I  I1  1  0.50000  0.50000  0.51050  1
 N  N1  1  0.00000  0.00000  0.88771  1
 O  O1  1  0.00000  0.00000  0.59014  1
 O  O2  1  0.50000  0.50000  0.02165  1
