CIF file written using JARVIS-Tools package.
data_TeMoI
_symmetry_space_group_name_H-M  'P4mm'
_cell_length_a       3.07227
_cell_length_b       3.07227
_cell_length_c       9.37024
_cell_angle_alpha    90
_cell_angle_beta     90
_cell_angle_gamma    90

_symmetry_Int_Tables_number  99
_chemical_formula_structural  TeMoI
_chemical_formula_sum  TeMoI
_cell_volume  88.4440752573089
_cell_formula_units_Z  1
loop_
  _symmetry_equiv_pos_site_id
 _symmetry_equiv_pos_as_xyz
 1  'x, y, z'
loop_
 _atom_site_type_symbol
 _atom_site_label
 _atom_site_symmetry_multiplicity
 _atom_site_fract_x
 _atom_site_fract_y
 _atom_site_fract_z
 _atom_site_fract_occupancy
 I  I1  1  0.00000  0.00000  0.39768  1
 Mo  Mo1  1  0.00000  0.00000  0.68706  1
 Te  Te1  1  0.00000  0.00000  -0.02401  1
