CIF file written using JARVIS-Tools package.
data_HCl
_symmetry_space_group_name_H-M  'Pc'
_cell_length_a       5.76802
_cell_length_b       3.84313
_cell_length_c       6.11849
_cell_angle_alpha    85.972
_cell_angle_beta     62.0244
_cell_angle_gamma    41.9017

_symmetry_Int_Tables_number  7
_chemical_formula_structural  HCl
_chemical_formula_sum  H2Cl2
_cell_volume  70.48761308726898
_cell_formula_units_Z  2
loop_
  _symmetry_equiv_pos_site_id
 _symmetry_equiv_pos_as_xyz
 1  'x, y, z'
loop_
 _atom_site_type_symbol
 _atom_site_label
 _atom_site_symmetry_multiplicity
 _atom_site_fract_x
 _atom_site_fract_y
 _atom_site_fract_z
 _atom_site_fract_occupancy
 Cl  Cl1  1  0.46834  0.24895  0.88754  1
 Cl  Cl2  1  0.46401  0.75294  0.39288  1
 H  H1  1  -0.16182  0.18990  0.20600  1
 H  H2  1  0.46999  0.05814  0.07458  1
