CIF file written using JARVIS-Tools package.
data_H2Cl
_symmetry_space_group_name_H-M  'Immm'
_cell_length_a       6.47517
_cell_length_b       3.83694
_cell_length_c       3.9175
_cell_angle_alpha    59.4301
_cell_angle_beta     52.7721
_cell_angle_gamma    32.5955

_symmetry_Int_Tables_number  71
_chemical_formula_structural  H2Cl
_chemical_formula_sum  H2Cl
_cell_volume  41.74809196114027
_cell_formula_units_Z  1
loop_
  _symmetry_equiv_pos_site_id
 _symmetry_equiv_pos_as_xyz
 1  'x, y, z'
loop_
 _atom_site_type_symbol
 _atom_site_label
 _atom_site_symmetry_multiplicity
 _atom_site_fract_x
 _atom_site_fract_y
 _atom_site_fract_z
 _atom_site_fract_occupancy
 Cl  Cl1  1  0.97596  0.97846  0.00271  1
 H  H1  1  0.58606  0.75825  0.00274  1
 H  H2  1  0.36588  0.19867  0.00274  1
