CIF file written using JARVIS-Tools package.
data_LaN2
_symmetry_space_group_name_H-M  'P-1'
_cell_length_a       4.08501
_cell_length_b       4.07955
_cell_length_c       3.731
_cell_angle_alpha    115.407
_cell_angle_beta     118.571
_cell_angle_gamma    99.6876

_symmetry_Int_Tables_number  2
_chemical_formula_structural  LaN2
_chemical_formula_sum  LaN2
_cell_volume  43.51628988979843
_cell_formula_units_Z  1
loop_
  _symmetry_equiv_pos_site_id
 _symmetry_equiv_pos_as_xyz
 1  'x, y, z'
loop_
 _atom_site_type_symbol
 _atom_site_label
 _atom_site_symmetry_multiplicity
 _atom_site_fract_x
 _atom_site_fract_y
 _atom_site_fract_z
 _atom_site_fract_occupancy
 La  La1  1  -0.12412  0.86003  0.07024  1
 N  N1  1  0.28294  0.47658  0.09518  1
 N  N2  1  0.46896  0.24370  0.04582  1
