CIF file written using JARVIS-Tools package.
data_BTe3
_symmetry_space_group_name_H-M  'P1'
_cell_length_a       6.00521
_cell_length_b       3.39919
_cell_length_c       5.83614
_cell_angle_alpha    99.0488
_cell_angle_beta     107.242
_cell_angle_gamma    91.4815

_symmetry_Int_Tables_number  1
_chemical_formula_structural  BTe3
_chemical_formula_sum  BTe3
_cell_volume  112.0307273454887
_cell_formula_units_Z  1
loop_
  _symmetry_equiv_pos_site_id
 _symmetry_equiv_pos_as_xyz
 1  'x, y, z'
loop_
 _atom_site_type_symbol
 _atom_site_label
 _atom_site_symmetry_multiplicity
 _atom_site_fract_x
 _atom_site_fract_y
 _atom_site_fract_z
 _atom_site_fract_occupancy
 B  B1  1  0.98510  -0.08307  0.05329  1
 Te  Te1  1  0.60212  0.85161  0.06669  1
 Te  Te2  1  0.28444  0.03011  0.39988  1
 Te  Te3  1  -0.04630  0.34567  0.78724  1
