CIF file written using JARVIS-Tools package.
data_BaNF
_symmetry_space_group_name_H-M  'P-6m2'
_cell_length_a       4.635
_cell_length_b       4.63485
_cell_length_c       4.83569
_cell_angle_alpha    90
_cell_angle_beta     90
_cell_angle_gamma    120.01

_symmetry_Int_Tables_number  187
_chemical_formula_structural  BaNF
_chemical_formula_sum  BaNF
_cell_volume  89.9564587374644
_cell_formula_units_Z  1
loop_
  _symmetry_equiv_pos_site_id
 _symmetry_equiv_pos_as_xyz
 1  'x, y, z'
loop_
 _atom_site_type_symbol
 _atom_site_label
 _atom_site_symmetry_multiplicity
 _atom_site_fract_x
 _atom_site_fract_y
 _atom_site_fract_z
 _atom_site_fract_occupancy
 Ba  Ba1  1  0.33336  0.00001  0.00000  1
 F  F1  1  -0.00007  0.33328  0.00000  1
 N  N1  1  0.66671  0.66671  0.00000  1
