CIF file written using JARVIS-Tools package.
data_Ge2I
_symmetry_space_group_name_H-M  'P1'
_cell_length_a       4.15064
_cell_length_b       4.1505
_cell_length_c       8.515
_cell_angle_alpha    80.3364
_cell_angle_beta     130.616
_cell_angle_gamma    120.112

_symmetry_Int_Tables_number  1
_chemical_formula_structural  Ge2I
_chemical_formula_sum  Ge2I
_cell_volume  93.46787388686633
_cell_formula_units_Z  1
loop_
  _symmetry_equiv_pos_site_id
 _symmetry_equiv_pos_as_xyz
 1  'x, y, z'
loop_
 _atom_site_type_symbol
 _atom_site_label
 _atom_site_symmetry_multiplicity
 _atom_site_fract_x
 _atom_site_fract_y
 _atom_site_fract_z
 _atom_site_fract_occupancy
 Ge  Ge1  1  0.15914  0.68851  0.64040  1
 Ge  Ge2  1  0.63746  0.97077  0.52010  1
 I  I1  1  0.01476  0.94449  0.07962  1
