CIF file written using JARVIS-Tools package.
data_MgRuO
_symmetry_space_group_name_H-M  'P4mm'
_cell_length_a       2.72403
_cell_length_b       2.72403
_cell_length_c       6.39919
_cell_angle_alpha    90
_cell_angle_beta     90
_cell_angle_gamma    90

_symmetry_Int_Tables_number  99
_chemical_formula_structural  MgRuO
_chemical_formula_sum  MgRuO
_cell_volume  47.48434264075135
_cell_formula_units_Z  1
loop_
  _symmetry_equiv_pos_site_id
 _symmetry_equiv_pos_as_xyz
 1  'x, y, z'
loop_
 _atom_site_type_symbol
 _atom_site_label
 _atom_site_symmetry_multiplicity
 _atom_site_fract_x
 _atom_site_fract_y
 _atom_site_fract_z
 _atom_site_fract_occupancy
 Mg  Mg1  1  0.00000  0.00000  0.29592  1
 O  O1  1  0.00000  0.00000  0.00217  1
 Ru  Ru1  1  0.00000  0.00000  0.72046  1
