CIF file written using JARVIS-Tools package.
data_IrO2
_symmetry_space_group_name_H-M  'Pmmm'
_cell_length_a       3.31028
_cell_length_b       2.71894
_cell_length_c       3.79939
_cell_angle_alpha    90
_cell_angle_beta     90
_cell_angle_gamma    90

_symmetry_Int_Tables_number  47
_chemical_formula_structural  IrO2
_chemical_formula_sum  IrO2
_cell_volume  34.196243004084266
_cell_formula_units_Z  1
loop_
  _symmetry_equiv_pos_site_id
 _symmetry_equiv_pos_as_xyz
 1  'x, y, z'
loop_
 _atom_site_type_symbol
 _atom_site_label
 _atom_site_symmetry_multiplicity
 _atom_site_fract_x
 _atom_site_fract_y
 _atom_site_fract_z
 _atom_site_fract_occupancy
 Ir  Ir1  1  0.80000  0.00000  0.00000  1
 O  O1  1  -0.70000  0.00000  0.29058  1
 O  O2  1  -0.70000  0.00000  0.70942  1
