CIF file written using JARVIS-Tools package.
data_LiCu2
_symmetry_space_group_name_H-M  'Pmmm'
_cell_length_a       4.34317
_cell_length_b       2.4167
_cell_length_c       4.73238
_cell_angle_alpha    90
_cell_angle_beta     90
_cell_angle_gamma    90

_symmetry_Int_Tables_number  47
_chemical_formula_structural  LiCu2
_chemical_formula_sum  LiCu2
_cell_volume  49.67157630684818
_cell_formula_units_Z  1
loop_
  _symmetry_equiv_pos_site_id
 _symmetry_equiv_pos_as_xyz
 1  'x, y, z'
loop_
 _atom_site_type_symbol
 _atom_site_label
 _atom_site_symmetry_multiplicity
 _atom_site_fract_x
 _atom_site_fract_y
 _atom_site_fract_z
 _atom_site_fract_occupancy
 Cu  Cu1  1  -0.03337  0.00000  0.74687  1
 Cu  Cu2  1  -0.03337  0.00000  0.25313  1
 Li  Li1  1  0.46674  0.00000  0.00000  1
