CIF file written using JARVIS-Tools package.
data_LiF
_symmetry_space_group_name_H-M  'Fm-3m'
_cell_length_a       2.84273
_cell_length_b       2.843
_cell_length_c       4.92379
_cell_angle_alpha    106.781
_cell_angle_beta     73.2049
_cell_angle_gamma    120.011

_symmetry_Int_Tables_number  225
_chemical_formula_structural  LiF
_chemical_formula_sum  Li2F2
_cell_volume  32.48567674215043
_cell_formula_units_Z  2
loop_
  _symmetry_equiv_pos_site_id
 _symmetry_equiv_pos_as_xyz
 1  'x, y, z'
loop_
 _atom_site_type_symbol
 _atom_site_label
 _atom_site_symmetry_multiplicity
 _atom_site_fract_x
 _atom_site_fract_y
 _atom_site_fract_z
 _atom_site_fract_occupancy
 F  F1  1  0.33081  0.80685  0.42130  1
 F  F2  1  0.83080  0.30683  0.92128  1
 Li  Li1  1  0.08077  0.05679  0.17126  1
 Li  Li2  1  0.58081  0.55678  0.67127  1
