CIF file written using JARVIS-Tools package.
data_BeCl2
_symmetry_space_group_name_H-M  'Pmm2'
_cell_length_a       6.96802
_cell_length_b       3.88598
_cell_length_c       3.3111
_cell_angle_alpha    90
_cell_angle_beta     61.6739
_cell_angle_gamma    90

_symmetry_Int_Tables_number  25
_chemical_formula_structural  BeCl2
_chemical_formula_sum  BeCl2
_cell_volume  78.92114645435959
_cell_formula_units_Z  1
loop_
  _symmetry_equiv_pos_site_id
 _symmetry_equiv_pos_as_xyz
 1  'x, y, z'
loop_
 _atom_site_type_symbol
 _atom_site_label
 _atom_site_symmetry_multiplicity
 _atom_site_fract_x
 _atom_site_fract_y
 _atom_site_fract_z
 _atom_site_fract_occupancy
 Be  Be1  1  0.02961  0.00000  0.26240  1
 Cl  Cl1  1  -0.15884  0.00000  -0.04943  1
 Cl  Cl2  1  0.32654  0.00000  -0.03396  1
