CIF file written using JARVIS-Tools package.
data_MoBr2
_symmetry_space_group_name_H-M  'Imm2'
_cell_length_a       4.92225
_cell_length_b       6.7578
_cell_length_c       3.26458
_cell_angle_alpha    90.1435
_cell_angle_beta     109.487
_cell_angle_gamma    46.5825

_symmetry_Int_Tables_number  44
_chemical_formula_structural  MoBr2
_chemical_formula_sum  MoBr2
_cell_volume  70.16224213311357
_cell_formula_units_Z  1
loop_
  _symmetry_equiv_pos_site_id
 _symmetry_equiv_pos_as_xyz
 1  'x, y, z'
loop_
 _atom_site_type_symbol
 _atom_site_label
 _atom_site_symmetry_multiplicity
 _atom_site_fract_x
 _atom_site_fract_y
 _atom_site_fract_z
 _atom_site_fract_occupancy
 Br  Br1  1  0.75218  0.28012  0.37085  1
 Br  Br2  1  0.75227  0.76887  0.36866  1
 Mo  Mo1  1  0.08371  0.85857  0.03554  1
