CIF file written using JARVIS-Tools package.
data_NCl2
_symmetry_space_group_name_H-M  'Pm'
_cell_length_a       4.47889
_cell_length_b       3.09968
_cell_length_c       4.68558
_cell_angle_alpha    90
_cell_angle_beta     84.8344
_cell_angle_gamma    90

_symmetry_Int_Tables_number  6
_chemical_formula_structural  NCl2
_chemical_formula_sum  NCl2
_cell_volume  64.78643768011557
_cell_formula_units_Z  1
loop_
  _symmetry_equiv_pos_site_id
 _symmetry_equiv_pos_as_xyz
 1  'x, y, z'
loop_
 _atom_site_type_symbol
 _atom_site_label
 _atom_site_symmetry_multiplicity
 _atom_site_fract_x
 _atom_site_fract_y
 _atom_site_fract_z
 _atom_site_fract_occupancy
 Cl  Cl1  1  0.19027  0.00000  -0.02154  1
 Cl  Cl2  1  -0.35538  0.00000  0.53002  1
 N  N1  1  0.56511  0.00000  -0.10848  1
