CIF file written using JARVIS-Tools package.
data_MgBr
_symmetry_space_group_name_H-M  'Fm-3m'
_cell_length_a       4.31395
_cell_length_b       4.31395
_cell_length_c       6.1254
_cell_angle_alpha    90
_cell_angle_beta     90
_cell_angle_gamma    90

_symmetry_Int_Tables_number  225
_chemical_formula_structural  MgBr
_chemical_formula_sum  Mg2Br2
_cell_volume  113.99478211527564
_cell_formula_units_Z  2
loop_
  _symmetry_equiv_pos_site_id
 _symmetry_equiv_pos_as_xyz
 1  'x, y, z'
loop_
 _atom_site_type_symbol
 _atom_site_label
 _atom_site_symmetry_multiplicity
 _atom_site_fract_x
 _atom_site_fract_y
 _atom_site_fract_z
 _atom_site_fract_occupancy
 Br  Br1  1  0.00000  0.00000  0.74987  1
 Br  Br2  1  0.50000  0.50000  0.25013  1
 Mg  Mg1  1  0.00000  0.00000  0.25009  1
 Mg  Mg2  1  0.50000  0.50000  0.74991  1
