CIF file written using JARVIS-Tools package.
data_MgBr
_symmetry_space_group_name_H-M  'Cm'
_cell_length_a       3.74307
_cell_length_b       3.73334
_cell_length_c       5.18071
_cell_angle_alpha    68.8254
_cell_angle_beta     90.1673
_cell_angle_gamma    120.043

_symmetry_Int_Tables_number  8
_chemical_formula_structural  MgBr
_chemical_formula_sum  MgBr
_cell_volume  57.000997483683506
_cell_formula_units_Z  1
loop_
  _symmetry_equiv_pos_site_id
 _symmetry_equiv_pos_as_xyz
 1  'x, y, z'
loop_
 _atom_site_type_symbol
 _atom_site_label
 _atom_site_symmetry_multiplicity
 _atom_site_fract_x
 _atom_site_fract_y
 _atom_site_fract_z
 _atom_site_fract_occupancy
 Br  Br1  1  0.91700  0.56227  0.56313  1
 Mg  Mg1  1  0.12794  0.98067  0.93696  1
