CIF file written using JARVIS-Tools package.
data_InBrO
_symmetry_space_group_name_H-M  'Pm'
_cell_length_a       6.23747
_cell_length_b       3.56336
_cell_length_c       4.11493
_cell_angle_alpha    90
_cell_angle_beta     90
_cell_angle_gamma    86.6142

_symmetry_Int_Tables_number  6
_chemical_formula_structural  InBrO
_chemical_formula_sum  InBrO
_cell_volume  91.300042162725
_cell_formula_units_Z  1
loop_
  _symmetry_equiv_pos_site_id
 _symmetry_equiv_pos_as_xyz
 1  'x, y, z'
loop_
 _atom_site_type_symbol
 _atom_site_label
 _atom_site_symmetry_multiplicity
 _atom_site_fract_x
 _atom_site_fract_y
 _atom_site_fract_z
 _atom_site_fract_occupancy
 Br  Br1  1  0.47541  0.02837  0.00000  1
 In  In1  1  -0.13127  -0.14071  0.00000  1
 O  O1  1  0.01977  0.34804  0.00000  1
