CIF file written using JARVIS-Tools package.
data_RbPbBr
_symmetry_space_group_name_H-M  'Pm'
_cell_length_a       6.05419
_cell_length_b       6.32759
_cell_length_c       3.56208
_cell_angle_alpha    90
_cell_angle_beta     90
_cell_angle_gamma    102.892

_symmetry_Int_Tables_number  6
_chemical_formula_structural  RbPbBr
_chemical_formula_sum  RbPbBr
_cell_volume  133.01805156090916
_cell_formula_units_Z  1
loop_
  _symmetry_equiv_pos_site_id
 _symmetry_equiv_pos_as_xyz
 1  'x, y, z'
loop_
 _atom_site_type_symbol
 _atom_site_label
 _atom_site_symmetry_multiplicity
 _atom_site_fract_x
 _atom_site_fract_y
 _atom_site_fract_z
 _atom_site_fract_occupancy
 Br  Br1  1  -0.10609  -0.07771  0.00000  1
 Pb  Pb1  1  0.42175  0.00198  0.00000  1
 Rb  Rb1  1  0.01388  0.44796  0.00000  1
