CIF file written using JARVIS-Tools package.
data_AsC
_symmetry_space_group_name_H-M  'P-1'
_cell_length_a       8.23812
_cell_length_b       4.25524
_cell_length_c       9.99162
_cell_angle_alpha    91.2765
_cell_angle_beta     53.9893
_cell_angle_gamma    40.4556

_symmetry_Int_Tables_number  2
_chemical_formula_structural  AsC
_chemical_formula_sum  As2C2
_cell_volume  82.0823209242555
_cell_formula_units_Z  2
loop_
  _symmetry_equiv_pos_site_id
 _symmetry_equiv_pos_as_xyz
 1  'x, y, z'
loop_
 _atom_site_type_symbol
 _atom_site_label
 _atom_site_symmetry_multiplicity
 _atom_site_fract_x
 _atom_site_fract_y
 _atom_site_fract_z
 _atom_site_fract_occupancy
 As  As1  1  -0.27949  -0.03374  0.23861  1
 As  As2  1  0.72313  0.86662  0.73577  1
 C  C1  1  0.72088  -0.10622  0.54799  1
 C  C2  1  0.72276  -0.06091  0.42638  1
