CIF file written using JARVIS-Tools package.
data_MgN2
_symmetry_space_group_name_H-M  'Pmmm'
_cell_length_a       4.15986
_cell_length_b       3.12404
_cell_length_c       2.88668
_cell_angle_alpha    90
_cell_angle_beta     90.0002
_cell_angle_gamma    90

_symmetry_Int_Tables_number  47
_chemical_formula_structural  MgN2
_chemical_formula_sum  MgN2
_cell_volume  37.51410505751584
_cell_formula_units_Z  1
loop_
  _symmetry_equiv_pos_site_id
 _symmetry_equiv_pos_as_xyz
 1  'x, y, z'
loop_
 _atom_site_type_symbol
 _atom_site_label
 _atom_site_symmetry_multiplicity
 _atom_site_fract_x
 _atom_site_fract_y
 _atom_site_fract_z
 _atom_site_fract_occupancy
 Mg  Mg1  1  0.46666  0.00000  -0.19995  1
 N  N1  1  -0.18028  0.00000  0.29996  1
 N  N2  1  0.11362  0.00000  0.29998  1
