CIF file written using JARVIS-Tools package.
data_AuS2
_symmetry_space_group_name_H-M  'P-1'
_cell_length_a       5.86752
_cell_length_b       4.19205
_cell_length_c       3.79265
_cell_angle_alpha    58.6702
_cell_angle_beta     99.0174
_cell_angle_gamma    65.9332

_symmetry_Int_Tables_number  2
_chemical_formula_structural  AuS2
_chemical_formula_sum  AuS2
_cell_volume  64.1111825845432
_cell_formula_units_Z  1
loop_
  _symmetry_equiv_pos_site_id
 _symmetry_equiv_pos_as_xyz
 1  'x, y, z'
loop_
 _atom_site_type_symbol
 _atom_site_label
 _atom_site_symmetry_multiplicity
 _atom_site_fract_x
 _atom_site_fract_y
 _atom_site_fract_z
 _atom_site_fract_occupancy
 Au  Au1  1  0.05438  0.10100  0.51074  1
 S  S1  1  0.37858  0.59995  0.42964  1
 S  S2  1  0.73017  0.60205  0.59184  1
