CIF file written using JARVIS-Tools package.
data_Au2S
_symmetry_space_group_name_H-M  'Cmmm'
_cell_length_a       8.13035
_cell_length_b       2.83096
_cell_length_c       4.98036
_cell_angle_alpha    90
_cell_angle_beta     35.2924
_cell_angle_gamma    90

_symmetry_Int_Tables_number  65
_chemical_formula_structural  Au2S
_chemical_formula_sum  Au2S
_cell_volume  66.2281538822037
_cell_formula_units_Z  1
loop_
  _symmetry_equiv_pos_site_id
 _symmetry_equiv_pos_as_xyz
 1  'x, y, z'
loop_
 _atom_site_type_symbol
 _atom_site_label
 _atom_site_symmetry_multiplicity
 _atom_site_fract_x
 _atom_site_fract_y
 _atom_site_fract_z
 _atom_site_fract_occupancy
 Au  Au1  1  -0.08464  0.00000  -0.09574  1
 Au  Au2  1  0.41519  0.00000  -0.09576  1
 S  S1  1  -0.08488  0.00000  0.40455  1
