CIF file written using JARVIS-Tools package.
data_ZrCCl2
_symmetry_space_group_name_H-M  'P4mm'
_cell_length_a       3.33373
_cell_length_b       3.33373
_cell_length_c       7.21777
_cell_angle_alpha    90
_cell_angle_beta     90
_cell_angle_gamma    90

_symmetry_Int_Tables_number  99
_chemical_formula_structural  ZrCCl2
_chemical_formula_sum  ZrCCl2
_cell_volume  80.21659318850655
_cell_formula_units_Z  1
loop_
  _symmetry_equiv_pos_site_id
 _symmetry_equiv_pos_as_xyz
 1  'x, y, z'
loop_
 _atom_site_type_symbol
 _atom_site_label
 _atom_site_symmetry_multiplicity
 _atom_site_fract_x
 _atom_site_fract_y
 _atom_site_fract_z
 _atom_site_fract_occupancy
 C  C1  1  0.00000  0.00000  0.72044  1
 Cl  Cl1  1  0.00000  0.00000  0.45498  1
 Cl  Cl2  1  0.50000  0.50000  0.07790  1
 Zr  Zr1  1  0.50000  0.50000  0.75668  1
