CIF file written using JARVIS-Tools package.
data_CCl2
_symmetry_space_group_name_H-M  'Pmm2'
_cell_length_a       6.32462
_cell_length_b       4.19858
_cell_length_c       3.6603
_cell_angle_alpha    90
_cell_angle_beta     90
_cell_angle_gamma    90

_symmetry_Int_Tables_number  25
_chemical_formula_structural  CCl2
_chemical_formula_sum  CCl2
_cell_volume  97.19704194327447
_cell_formula_units_Z  1
loop_
  _symmetry_equiv_pos_site_id
 _symmetry_equiv_pos_as_xyz
 1  'x, y, z'
loop_
 _atom_site_type_symbol
 _atom_site_label
 _atom_site_symmetry_multiplicity
 _atom_site_fract_x
 _atom_site_fract_y
 _atom_site_fract_z
 _atom_site_fract_occupancy
 C  C1  1  0.00000  0.27428  0.00000  1
 Cl  Cl1  1  0.22463  0.03886  0.00000  1
 Cl  Cl2  1  0.77537  0.03886  0.00000  1
