CIF file written using JARVIS-Tools package.
data_PbCN
_symmetry_space_group_name_H-M  'Pmm2'
_cell_length_a       4.84155
_cell_length_b       3.88545
_cell_length_c       3.41901
_cell_angle_alpha    90
_cell_angle_beta     90
_cell_angle_gamma    90.1171

_symmetry_Int_Tables_number  25
_chemical_formula_structural  PbCN
_chemical_formula_sum  PbCN
_cell_volume  64.31699321647322
_cell_formula_units_Z  1
loop_
  _symmetry_equiv_pos_site_id
 _symmetry_equiv_pos_as_xyz
 1  'x, y, z'
loop_
 _atom_site_type_symbol
 _atom_site_label
 _atom_site_symmetry_multiplicity
 _atom_site_fract_x
 _atom_site_fract_y
 _atom_site_fract_z
 _atom_site_fract_occupancy
 C  C1  1  0.28824  0.16597  0.00000  1
 N  N1  1  0.04378  0.16716  0.00000  1
 Pb  Pb1  1  0.66799  0.66687  0.00000  1
