CIF file written using JARVIS-Tools package.
data_CCl2
_symmetry_space_group_name_H-M  'Pm'
_cell_length_a       4.61547
_cell_length_b       3.47262
_cell_length_c       4.7677
_cell_angle_alpha    90
_cell_angle_beta     94.1689
_cell_angle_gamma    90

_symmetry_Int_Tables_number  6
_chemical_formula_structural  CCl2
_chemical_formula_sum  CCl2
_cell_volume  76.21335224860636
_cell_formula_units_Z  1
loop_
  _symmetry_equiv_pos_site_id
 _symmetry_equiv_pos_as_xyz
 1  'x, y, z'
loop_
 _atom_site_type_symbol
 _atom_site_label
 _atom_site_symmetry_multiplicity
 _atom_site_fract_x
 _atom_site_fract_y
 _atom_site_fract_z
 _atom_site_fract_occupancy
 C  C1  1  0.36898  0.00000  -0.10668  1
 Cl  Cl1  1  -0.26290  0.00000  -0.02788  1
 Cl  Cl2  1  0.29392  0.00000  0.53456  1
