CIF file written using JARVIS-Tools package.
data_BaSe2
_symmetry_space_group_name_H-M  'P2/m'
_cell_length_a       5.21938
_cell_length_b       5.20925
_cell_length_c       6.02836
_cell_angle_alpha    90
_cell_angle_beta     118.603
_cell_angle_gamma    90

_symmetry_Int_Tables_number  10
_chemical_formula_structural  BaSe2
_chemical_formula_sum  BaSe2
_cell_volume  143.90279702671566
_cell_formula_units_Z  1
loop_
  _symmetry_equiv_pos_site_id
 _symmetry_equiv_pos_as_xyz
 1  'x, y, z'
loop_
 _atom_site_type_symbol
 _atom_site_label
 _atom_site_symmetry_multiplicity
 _atom_site_fract_x
 _atom_site_fract_y
 _atom_site_fract_z
 _atom_site_fract_occupancy
 Ba  Ba1  1  0.46673  0.00000  0.13335  1
 Se  Se1  1  -0.26345  0.00000  -0.27709  1
 Se  Se2  1  0.19672  0.00000  0.54375  1
