CIF file written using JARVIS-Tools package.
data_BaHfSe
_symmetry_space_group_name_H-M  'P2/m'
_cell_length_a       8.83131
_cell_length_b       6.36357
_cell_length_c       3.60022
_cell_angle_alpha    90
_cell_angle_beta     90
_cell_angle_gamma    34.3837

_symmetry_Int_Tables_number  10
_chemical_formula_structural  BaHfSe
_chemical_formula_sum  BaHfSe
_cell_volume  114.26095845211661
_cell_formula_units_Z  1
loop_
  _symmetry_equiv_pos_site_id
 _symmetry_equiv_pos_as_xyz
 1  'x, y, z'
loop_
 _atom_site_type_symbol
 _atom_site_label
 _atom_site_symmetry_multiplicity
 _atom_site_fract_x
 _atom_site_fract_y
 _atom_site_fract_z
 _atom_site_fract_occupancy
 Ba  Ba1  1  -0.04953  -0.05774  0.00000  1
 Hf  Hf1  1  0.45032  -0.05759  0.00000  1
 Se  Se1  1  -0.04968  0.44242  0.00000  1
