CIF file written using JARVIS-Tools package.
data_CdO3
_symmetry_space_group_name_H-M  'P1'
_cell_length_a       3.15577
_cell_length_b       3.18271
_cell_length_c       6.23118
_cell_angle_alpha    116.354
_cell_angle_beta     87.3261
_cell_angle_gamma    90.0217

_symmetry_Int_Tables_number  1
_chemical_formula_structural  CdO3
_chemical_formula_sum  CdO3
_cell_volume  56.00514847557491
_cell_formula_units_Z  1
loop_
  _symmetry_equiv_pos_site_id
 _symmetry_equiv_pos_as_xyz
 1  'x, y, z'
loop_
 _atom_site_type_symbol
 _atom_site_label
 _atom_site_symmetry_multiplicity
 _atom_site_fract_x
 _atom_site_fract_y
 _atom_site_fract_z
 _atom_site_fract_occupancy
 Cd  Cd1  1  0.00573  0.04229  0.01514  1
 O  O1  1  0.51118  0.53658  0.01193  1
 O  O2  1  0.09117  0.35646  0.59454  1
 O  O3  1  0.27254  0.45322  0.43745  1
