CIF file written using JARVIS-Tools package.
data_LiBeSb
_symmetry_space_group_name_H-M  'Amm2'
_cell_length_a       4.86428
_cell_length_b       4.21287
_cell_length_c       3.29697
_cell_angle_alpha    90
_cell_angle_beta     90
_cell_angle_gamma    115.658

_symmetry_Int_Tables_number  38
_chemical_formula_structural  LiBeSb
_chemical_formula_sum  LiBeSb
_cell_volume  60.901353348257615
_cell_formula_units_Z  1
loop_
  _symmetry_equiv_pos_site_id
 _symmetry_equiv_pos_as_xyz
 1  'x, y, z'
loop_
 _atom_site_type_symbol
 _atom_site_label
 _atom_site_symmetry_multiplicity
 _atom_site_fract_x
 _atom_site_fract_y
 _atom_site_fract_z
 _atom_site_fract_occupancy
 Be  Be1  1  -0.21949  -0.22797  0.00000  1
 Li  Li1  1  0.43450  0.09901  0.00000  1
 Sb  Sb1  1  0.05643  0.40998  0.00000  1
