CIF file written using JARVIS-Tools package.
data_Mg2Be
_symmetry_space_group_name_H-M  'Pmmm'
_cell_length_a       2.94799
_cell_length_b       2.95418
_cell_length_c       7.16023
_cell_angle_alpha    90
_cell_angle_beta     90
_cell_angle_gamma    90

_symmetry_Int_Tables_number  47
_chemical_formula_structural  Mg2Be
_chemical_formula_sum  Mg2Be
_cell_volume  62.3575163556605
_cell_formula_units_Z  1
loop_
  _symmetry_equiv_pos_site_id
 _symmetry_equiv_pos_as_xyz
 1  'x, y, z'
loop_
 _atom_site_type_symbol
 _atom_site_label
 _atom_site_symmetry_multiplicity
 _atom_site_fract_x
 _atom_site_fract_y
 _atom_site_fract_z
 _atom_site_fract_occupancy
 Be  Be1  1  0.46660  0.00000  0.00000  1
 Mg  Mg1  1  -0.03330  0.00000  0.70555  1
 Mg  Mg2  1  -0.03330  0.00000  0.29445  1
