CIF file written using JARVIS-Tools package.
data_BiO
_symmetry_space_group_name_H-M  'P4/nmm'
_cell_length_a       3.53749
_cell_length_b       3.53749
_cell_length_c       5.8679
_cell_angle_alpha    90
_cell_angle_beta     90
_cell_angle_gamma    90

_symmetry_Int_Tables_number  129
_chemical_formula_structural  BiO
_chemical_formula_sum  Bi2O2
_cell_volume  73.42995433328146
_cell_formula_units_Z  2
loop_
  _symmetry_equiv_pos_site_id
 _symmetry_equiv_pos_as_xyz
 1  'x, y, z'
loop_
 _atom_site_type_symbol
 _atom_site_label
 _atom_site_symmetry_multiplicity
 _atom_site_fract_x
 _atom_site_fract_y
 _atom_site_fract_z
 _atom_site_fract_occupancy
 Bi  Bi1  1  0.00000  0.00000  0.24477  1
 Bi  Bi2  1  0.50000  0.50000  0.75523  1
 O  O1  1  0.00000  0.00000  0.84229  1
 O  O2  1  0.50000  0.50000  0.15771  1
