CIF file written using JARVIS-Tools package.
data_BiO3
_symmetry_space_group_name_H-M  'P1'
_cell_length_a       3.96611
_cell_length_b       5.03893
_cell_length_c       3.98269
_cell_angle_alpha    120.793
_cell_angle_beta     124.44
_cell_angle_gamma    80.0545

_symmetry_Int_Tables_number  1
_chemical_formula_structural  BiO3
_chemical_formula_sum  BiO3
_cell_volume  55.61689231094849
_cell_formula_units_Z  1
loop_
  _symmetry_equiv_pos_site_id
 _symmetry_equiv_pos_as_xyz
 1  'x, y, z'
loop_
 _atom_site_type_symbol
 _atom_site_label
 _atom_site_symmetry_multiplicity
 _atom_site_fract_x
 _atom_site_fract_y
 _atom_site_fract_z
 _atom_site_fract_occupancy
 Bi  Bi1  1  0.47851  0.70845  0.47705  1
 O  O1  1  0.18514  0.81361  0.87645  1
 O  O2  1  0.80653  0.37748  0.81936  1
 O  O3  1  0.59486  0.26537  -0.08194  1
