CIF file written using JARVIS-Tools package.
data_SrHCl
_symmetry_space_group_name_H-M  'P4/nmm'
_cell_length_a       4.09077
_cell_length_b       4.09077
_cell_length_c       6.95912
_cell_angle_alpha    90
_cell_angle_beta     90
_cell_angle_gamma    90

_symmetry_Int_Tables_number  129
_chemical_formula_structural  SrHCl
_chemical_formula_sum  Sr2H2Cl2
_cell_volume  116.45681454822903
_cell_formula_units_Z  2
loop_
  _symmetry_equiv_pos_site_id
 _symmetry_equiv_pos_as_xyz
 1  'x, y, z'
loop_
 _atom_site_type_symbol
 _atom_site_label
 _atom_site_symmetry_multiplicity
 _atom_site_fract_x
 _atom_site_fract_y
 _atom_site_fract_z
 _atom_site_fract_occupancy
 Cl  Cl1  1  0.50000  0.00000  0.64769  1
 Cl  Cl2  1  0.00000  0.50000  0.35231  1
 H  H1  1  0.50000  0.50000  0.00000  1
 H  H2  1  0.00000  0.00000  0.00000  1
 Sr  Sr1  1  0.00000  0.50000  0.79802  1
 Sr  Sr2  1  0.50000  0.00000  0.20198  1
