CIF file written using JARVIS-Tools package.
data_MgBH
_symmetry_space_group_name_H-M  'P2_1/m'
_cell_length_a       3.69235
_cell_length_b       3.07407
_cell_length_c       6.22734
_cell_angle_alpha    90
_cell_angle_beta     118.541
_cell_angle_gamma    90

_symmetry_Int_Tables_number  11
_chemical_formula_structural  MgBH
_chemical_formula_sum  Mg2B2H2
_cell_volume  62.093742846804126
_cell_formula_units_Z  2
loop_
  _symmetry_equiv_pos_site_id
 _symmetry_equiv_pos_as_xyz
 1  'x, y, z'
loop_
 _atom_site_type_symbol
 _atom_site_label
 _atom_site_symmetry_multiplicity
 _atom_site_fract_x
 _atom_site_fract_y
 _atom_site_fract_z
 _atom_site_fract_occupancy
 B  B1  1  -0.06035  0.25000  -0.06379  1
 B  B2  1  0.06035  0.75000  0.06379  1
 H  H1  1  0.68617  0.25000  0.71697  1
 H  H2  1  0.31383  0.75000  0.28303  1
 Mg  Mg1  1  0.72007  0.25000  0.25361  1
 Mg  Mg2  1  0.27994  0.75000  0.74639  1
