CIF file written using JARVIS-Tools package.
data_BiO
_symmetry_space_group_name_H-M  'P1'
_cell_length_a       3.57749
_cell_length_b       4.97585
_cell_length_c       5.01786
_cell_angle_alpha    103.61
_cell_angle_beta     65.6026
_cell_angle_gamma    106.388

_symmetry_Int_Tables_number  1
_chemical_formula_structural  BiO
_chemical_formula_sum  Bi2O2
_cell_volume  77.31790385457134
_cell_formula_units_Z  2
loop_
  _symmetry_equiv_pos_site_id
 _symmetry_equiv_pos_as_xyz
 1  'x, y, z'
loop_
 _atom_site_type_symbol
 _atom_site_label
 _atom_site_symmetry_multiplicity
 _atom_site_fract_x
 _atom_site_fract_y
 _atom_site_fract_z
 _atom_site_fract_occupancy
 Bi  Bi1  1  -0.00828  0.05581  0.07438  1
 Bi  Bi2  1  0.24191  0.51243  0.52634  1
 O  O1  1  0.93408  0.63657  0.21887  1
 O  O2  1  0.51532  0.21275  0.64825  1
