CIF file written using JARVIS-Tools package.
data_Ca2Br
_symmetry_space_group_name_H-M  'Pmmm'
_cell_length_a       3.68869
_cell_length_b       3.75648
_cell_length_c       8.33529
_cell_angle_alpha    90
_cell_angle_beta     90
_cell_angle_gamma    90

_symmetry_Int_Tables_number  47
_chemical_formula_structural  Ca2Br
_chemical_formula_sum  Ca2Br
_cell_volume  115.49757725445063
_cell_formula_units_Z  1
loop_
  _symmetry_equiv_pos_site_id
 _symmetry_equiv_pos_as_xyz
 1  'x, y, z'
loop_
 _atom_site_type_symbol
 _atom_site_label
 _atom_site_symmetry_multiplicity
 _atom_site_fract_x
 _atom_site_fract_y
 _atom_site_fract_z
 _atom_site_fract_occupancy
 Br  Br1  1  0.46670  0.00000  0.00000  1
 Ca  Ca1  1  -0.03335  0.00000  0.71482  1
 Ca  Ca2  1  -0.03335  0.00000  0.28518  1
