CIF file written using JARVIS-Tools package.
data_Ca3Te
_symmetry_space_group_name_H-M  'Immm'
_cell_length_a       5.53087
_cell_length_b       9.09941
_cell_length_c       4.06295
_cell_angle_alpha    48.0027
_cell_angle_beta     89.9711
_cell_angle_gamma    107.686

_symmetry_Int_Tables_number  71
_chemical_formula_structural  Ca3Te
_chemical_formula_sum  Ca3Te
_cell_volume  138.6552927098396
_cell_formula_units_Z  1
loop_
  _symmetry_equiv_pos_site_id
 _symmetry_equiv_pos_as_xyz
 1  'x, y, z'
loop_
 _atom_site_type_symbol
 _atom_site_label
 _atom_site_symmetry_multiplicity
 _atom_site_fract_x
 _atom_site_fract_y
 _atom_site_fract_z
 _atom_site_fract_occupancy
 Ca  Ca1  1  0.06030  0.56410  0.43975  1
 Ca  Ca2  1  0.65267  0.74877  0.66291  1
 Ca  Ca3  1  0.35653  0.15644  0.05145  1
 Te  Te1  1  0.85662  0.15644  0.55139  1
