CIF file written using JARVIS-Tools package.
data_HC
_symmetry_space_group_name_H-M  'Pmm2'
_cell_length_a       3.68868
_cell_length_b       2.6279
_cell_length_c       1.95625
_cell_angle_alpha    138.129
_cell_angle_beta     122.192
_cell_angle_gamma    66.6325

_symmetry_Int_Tables_number  25
_chemical_formula_structural  HC
_chemical_formula_sum  HC
_cell_volume  10.710930081039624
_cell_formula_units_Z  1
loop_
  _symmetry_equiv_pos_site_id
 _symmetry_equiv_pos_as_xyz
 1  'x, y, z'
loop_
 _atom_site_type_symbol
 _atom_site_label
 _atom_site_symmetry_multiplicity
 _atom_site_fract_x
 _atom_site_fract_y
 _atom_site_fract_z
 _atom_site_fract_occupancy
 C  C1  1  0.43222  0.84043  0.39366  1
 H  H1  1  0.07919  0.84031  0.03895  1
