CIF file written using JARVIS-Tools package.
data_TiI3
_symmetry_space_group_name_H-M  'P-62m'
_cell_length_a       7.42706
_cell_length_b       7.42706
_cell_length_c       4.03082
_cell_angle_alpha    90
_cell_angle_beta     90
_cell_angle_gamma    120

_symmetry_Int_Tables_number  189
_chemical_formula_structural  TiI3
_chemical_formula_sum  TiI3
_cell_volume  192.5566750601019
_cell_formula_units_Z  1
loop_
  _symmetry_equiv_pos_site_id
 _symmetry_equiv_pos_as_xyz
 1  'x, y, z'
loop_
 _atom_site_type_symbol
 _atom_site_label
 _atom_site_symmetry_multiplicity
 _atom_site_fract_x
 _atom_site_fract_y
 _atom_site_fract_z
 _atom_site_fract_occupancy
 I  I1  1  0.34329  0.00000  0.00000  1
 I  I2  1  1.00000  0.34329  0.00000  1
 I  I3  1  0.65671  0.65671  0.00000  1
 Ti  Ti1  1  0.00000  0.00000  0.00000  1
