CIF file written using JARVIS-Tools package.
data_AsBr2
_symmetry_space_group_name_H-M  'Amm2'
_cell_length_a       5.57319
_cell_length_b       3.4577
_cell_length_c       5.57455
_cell_angle_alpha    90
_cell_angle_beta     83.288
_cell_angle_gamma    90

_symmetry_Int_Tables_number  38
_chemical_formula_structural  AsBr2
_chemical_formula_sum  AsBr2
_cell_volume  106.68765223167274
_cell_formula_units_Z  1
loop_
  _symmetry_equiv_pos_site_id
 _symmetry_equiv_pos_as_xyz
 1  'x, y, z'
loop_
 _atom_site_type_symbol
 _atom_site_label
 _atom_site_symmetry_multiplicity
 _atom_site_fract_x
 _atom_site_fract_y
 _atom_site_fract_z
 _atom_site_fract_occupancy
 As  As1  1  0.34973  0.00000  0.01670  1
 Br  Br1  1  -0.22390  0.00000  -0.05972  1
 Br  Br2  1  0.27416  0.00000  0.44301  1
