CIF file written using JARVIS-Tools package.
data_AsBr2
_symmetry_space_group_name_H-M  'Imm2'
_cell_length_a       5.59465
_cell_length_b       3.49951
_cell_length_c       5.59954
_cell_angle_alpha    71.6805
_cell_angle_beta     96.227
_cell_angle_gamma    108.299

_symmetry_Int_Tables_number  44
_chemical_formula_structural  AsBr2
_chemical_formula_sum  AsBr2
_cell_volume  98.8059454588535
_cell_formula_units_Z  1
loop_
  _symmetry_equiv_pos_site_id
 _symmetry_equiv_pos_as_xyz
 1  'x, y, z'
loop_
 _atom_site_type_symbol
 _atom_site_label
 _atom_site_symmetry_multiplicity
 _atom_site_fract_x
 _atom_site_fract_y
 _atom_site_fract_z
 _atom_site_fract_occupancy
 As  As1  1  0.08848  0.04196  0.98697  1
 Br  Br1  1  0.53304  0.24081  0.03458  1
 Br  Br2  1  0.04108  0.24098  0.54275  1
