CIF file written using JARVIS-Tools package.
data_Al2Cu2Ni
_symmetry_space_group_name_H-M  'P4mm'
_cell_length_a       2.97443
_cell_length_b       2.97443
_cell_length_c       14.1417
_cell_angle_alpha    90
_cell_angle_beta     90
_cell_angle_gamma    90

_symmetry_Int_Tables_number  99
_chemical_formula_structural  Al2Cu2Ni
_chemical_formula_sum  Al4Cu4Ni2
_cell_volume  125.11506520876048
_cell_formula_units_Z  2
loop_
  _symmetry_equiv_pos_site_id
 _symmetry_equiv_pos_as_xyz
 1  'x, y, z'
loop_
 _atom_site_type_symbol
 _atom_site_label
 _atom_site_symmetry_multiplicity
 _atom_site_fract_x
 _atom_site_fract_y
 _atom_site_fract_z
 _atom_site_fract_occupancy
 Al  Al1  1  0.00000  0.00000  0.99332  1
 Al  Al2  1  0.00000  0.00000  0.18863  1
 Al  Al3  1  0.00000  0.00000  0.40039  1
 Al  Al4  1  0.00000  0.00000  0.61419  1
 Cu  Cu1  1  0.50000  0.50000  0.29557  1
 Cu  Cu2  1  0.50000  0.50000  0.50566  1
 Cu  Cu3  1  0.50000  0.50000  0.70877  1
 Cu  Cu4  1  0.50000  0.50000  0.89615  1
 Ni  Ni1  1  0.00000  0.00000  0.80231  1
 Ni  Ni2  1  0.50000  0.50000  0.09501  1
