CIF file written using JARVIS-Tools package.
data_Yb2Mg
_symmetry_space_group_name_H-M  'Cmcm'
_cell_length_a       6.1831
_cell_length_b       6.1831
_cell_length_c       5.79791
_cell_angle_alpha    90
_cell_angle_beta     90
_cell_angle_gamma    120.642

_symmetry_Int_Tables_number  63
_chemical_formula_structural  Yb2Mg
_chemical_formula_sum  Yb4Mg2
_cell_volume  190.70708582549707
_cell_formula_units_Z  2
loop_
  _symmetry_equiv_pos_site_id
 _symmetry_equiv_pos_as_xyz
 1  'x, y, z'
loop_
 _atom_site_type_symbol
 _atom_site_label
 _atom_site_symmetry_multiplicity
 _atom_site_fract_x
 _atom_site_fract_y
 _atom_site_fract_z
 _atom_site_fract_occupancy
 Mg  Mg1  1  0.66936  0.66936  0.75000  1
 Mg  Mg2  1  0.33064  0.33064  0.25000  1
 Yb  Yb1  1  0.65721  0.97782  0.25000  1
 Yb  Yb2  1  0.02218  0.34279  0.75000  1
 Yb  Yb3  1  0.97782  0.65721  0.25000  1
 Yb  Yb4  1  0.34279  0.02218  0.75000  1
