CIF file written using JARVIS-Tools package.
data_Nb9PO25
_symmetry_space_group_name_H-M  'I-4'
_cell_length_a       3.87993
_cell_length_b       11.3946
_cell_length_c       11.3946
_cell_angle_alpha    88.339
_cell_angle_beta     80.1974
_cell_angle_gamma    80.1974

_symmetry_Int_Tables_number  82
_chemical_formula_structural  Nb9PO25
_chemical_formula_sum  Nb9PO25
_cell_volume  489.15292704246923
_cell_formula_units_Z  1
loop_
  _symmetry_equiv_pos_site_id
 _symmetry_equiv_pos_as_xyz
 1  'x, y, z'
loop_
 _atom_site_type_symbol
 _atom_site_label
 _atom_site_symmetry_multiplicity
 _atom_site_fract_x
 _atom_site_fract_y
 _atom_site_fract_z
 _atom_site_fract_occupancy
 Nb  Nb1  1  0.88226  0.78300  0.44284  1
 Nb  Nb2  1  0.67490  0.44284  0.21700  1
 Nb  Nb3  1  0.33474  0.55716  0.78300  1
 Nb  Nb4  1  0.10810  0.21700  0.55716  1
 Nb  Nb5  1  0.00000  0.00000  0.00000  1
 Nb  Nb6  1  0.88435  0.32804  0.89106  1
 Nb  Nb7  1  0.10345  0.67196  0.10894  1
 Nb  Nb8  1  0.22459  0.89106  0.67196  1
 Nb  Nb9  1  0.78761  0.10894  0.32804  1
 O  O1  1  0.51843  0.51452  0.38549  1
 O  O2  1  0.41845  0.48548  0.61451  1
 O  O3  1  0.05147  0.83095  0.06297  1
 O  O4  1  0.09607  0.38549  0.48548  1
 O  O5  1  0.73026  0.29029  0.27049  1
 O  O6  1  0.60489  0.63428  0.13946  1
 O  O7  1  0.25565  0.13946  0.36572  1
 O  O8  1  0.37863  0.36572  0.86054  1
 O  O9  1  0.96704  0.61451  0.51452  1
 O  O10  1  0.76083  0.86054  0.63428  1
 O  O11  1  0.50000  0.00000  0.00000  1
 O  O12  1  0.83704  0.51033  0.79926  1
 O  O13  1  0.14664  0.48967  0.20074  1
 O  O14  1  0.65263  0.20074  0.51033  1
 O  O15  1  0.11758  0.93703  0.83095  1
 O  O16  1  0.97944  0.72951  0.29029  1
 O  O17  1  0.19265  0.04554  0.60420  1
 O  O18  1  0.20315  0.60420  0.95446  1
 O  O19  1  0.76181  0.39580  0.04554  1
 O  O20  1  0.84240  0.95446  0.39580  1
 O  O21  1  0.99925  0.27049  0.70971  1
 O  O22  1  0.29104  0.70971  0.72951  1
 O  O23  1  0.88557  0.06297  0.16905  1
 O  O24  1  0.36370  0.79926  0.48967  1
 O  O25  1  0.94538  0.16905  0.93703  1
 P  P1  1  0.25000  0.50000  0.50000  1
