CIF file written using JARVIS-Tools package.
data_ZnS
_symmetry_space_group_name_H-M  'P3m1'
_cell_length_a       3.81592
_cell_length_b       3.81592
_cell_length_c       38.9872
_cell_angle_alpha    90
_cell_angle_beta     90
_cell_angle_gamma    120

_symmetry_Int_Tables_number  156
_chemical_formula_structural  ZnS
_chemical_formula_sum  Zn2S2
_cell_volume  491.64409636555354
_cell_formula_units_Z  12
loop_
  _symmetry_equiv_pos_site_id
 _symmetry_equiv_pos_as_xyz
 1  'x, y, z'
loop_
 _atom_site_type_symbol
 _atom_site_label
 _atom_site_symmetry_multiplicity
 _atom_site_fract_x
 _atom_site_fract_y
 _atom_site_fract_z
 _atom_site_fract_occupancy
 S  S1  1  0.33333  0.66667  0.79647  1
 S  S2  1  0.00000  0.00000  0.55380  1
 S  S3  1  0.66667  0.33333  0.23028  1
 S  S4  1  0.33333  0.66667  0.47300  1
 S  S5  1  0.00000  0.00000  0.71571  1
 S  S6  1  0.66667  0.33333  0.63486  1
 S  S7  1  0.33333  0.66667  0.14950  1
 S  S8  1  0.00000  0.00000  0.31135  1
 S  S9  1  0.00000  0.00000  0.92527  1
 S  S10  1  0.00000  0.00000  0.06883  1
 S  S11  1  0.66667  0.33333  0.39220  1
 S  S12  1  0.66667  0.33333  0.98807  1
 Zn  Zn1  1  0.66667  0.33333  0.82096  1
 Zn  Zn2  1  0.00000  0.00000  0.25076  1
 Zn  Zn3  1  0.66667  0.33333  0.33177  1
 Zn  Zn4  1  0.66667  0.33333  0.57429  1
 Zn  Zn5  1  0.00000  0.00000  0.00766  1
 Zn  Zn6  1  0.33333  0.66667  0.41255  1
 Zn  Zn7  1  0.33333  0.66667  0.08888  1
 Zn  Zn8  1  0.33333  0.66667  0.73612  1
 Zn  Zn9  1  0.00000  0.00000  0.86921  1
 Zn  Zn10  1  0.00000  0.00000  0.49336  1
 Zn  Zn11  1  0.00000  0.00000  0.65529  1
 Zn  Zn12  1  0.66667  0.33333  0.16980  1
