CIF file written using JARVIS-Tools package.
data_HfCrAgS4
_symmetry_space_group_name_H-M  'P2/m'
_cell_length_a       3.59518
_cell_length_b       6.11377
_cell_length_c       6.44754
_cell_angle_alpha    89.3801
_cell_angle_beta     90
_cell_angle_gamma    90

_symmetry_Int_Tables_number  10
_chemical_formula_structural  HfCrAgS4
_chemical_formula_sum  HfCrAgS4
_cell_volume  141.70926121520066
_cell_formula_units_Z  1
loop_
  _symmetry_equiv_pos_site_id
 _symmetry_equiv_pos_as_xyz
 1  'x, y, z'
loop_
 _atom_site_type_symbol
 _atom_site_label
 _atom_site_symmetry_multiplicity
 _atom_site_fract_x
 _atom_site_fract_y
 _atom_site_fract_z
 _atom_site_fract_occupancy
 Ag  Ag1  1  0.00000  0.50000  0.50000  1
 Cr  Cr1  1  0.00000  0.50000  0.00000  1
 Hf  Hf1  1  0.50000  0.00000  0.00000  1
 S  S1  1  0.00000  0.82542  0.22436  1
 S  S2  1  0.50000  0.34393  0.21394  1
 S  S3  1  0.50000  0.65607  0.78606  1
 S  S4  1  0.00000  0.17458  0.77564  1
