CIF file written using JARVIS-Tools package.
data_Li2CuNiO4
_symmetry_space_group_name_H-M  'P2/m'
_cell_length_a       2.80715
_cell_length_b       5.50693
_cell_length_c       5.15411
_cell_angle_alpha    62.2961
_cell_angle_beta     90
_cell_angle_gamma    90

_symmetry_Int_Tables_number  10
_chemical_formula_structural  Li2CuNiO4
_chemical_formula_sum  Li2CuNiO4
_cell_volume  70.54236422186526
_cell_formula_units_Z  1
loop_
  _symmetry_equiv_pos_site_id
 _symmetry_equiv_pos_as_xyz
 1  'x, y, z'
loop_
 _atom_site_type_symbol
 _atom_site_label
 _atom_site_symmetry_multiplicity
 _atom_site_fract_x
 _atom_site_fract_y
 _atom_site_fract_z
 _atom_site_fract_occupancy
 Cu  Cu1  1  0.00000  0.50000  0.50000  1
 Li  Li1  1  0.00000  0.00000  0.00000  1
 Li  Li2  1  0.50000  0.50000  0.00000  1
 Ni  Ni1  1  0.50000  -0.00000  0.50000  1
 O  O1  1  0.00000  0.79035  0.76273  1
 O  O2  1  0.50000  0.23676  0.68216  1
 O  O3  1  0.00000  0.20965  0.23727  1
 O  O4  1  0.50000  0.76324  0.31784  1
