CIF file written using JARVIS-Tools package.
data_Ba5Al2In2IrClO13
_symmetry_space_group_name_H-M  'P6_3/mmc'
_cell_length_a       5.90935
_cell_length_b       5.90935
_cell_length_c       25.4752
_cell_angle_alpha    90
_cell_angle_beta     90
_cell_angle_gamma    120

_symmetry_Int_Tables_number  194
_chemical_formula_structural  Ba5Al2In2IrClO13
_chemical_formula_sum  Ba0Al4In4Ir2Cl2O26
_cell_volume  770.4193722470678
_cell_formula_units_Z  2
loop_
  _symmetry_equiv_pos_site_id
 _symmetry_equiv_pos_as_xyz
 1  'x, y, z'
loop_
 _atom_site_type_symbol
 _atom_site_label
 _atom_site_symmetry_multiplicity
 _atom_site_fract_x
 _atom_site_fract_y
 _atom_site_fract_z
 _atom_site_fract_occupancy
 Al  Al1  1  0.33333  0.66667  0.81817  1
 Al  Al2  1  0.66667  0.33333  0.31817  1
 Al  Al3  1  0.66667  0.33333  0.18183  1
 Al  Al4  1  0.33333  0.66667  0.68183  1
 Ba  Ba1  1  0.00000  0.00000  0.75000  1
 Ba  Ba2  1  0.00000  0.00000  0.25000  1
 Ba  Ba3  1  0.33333  0.66667  0.13111  1
 Ba  Ba4  1  0.66667  0.33333  0.46018  1
 Ba  Ba5  1  0.66667  0.33333  0.86889  1
 Ba  Ba6  1  0.66667  0.33333  0.63111  1
 Ba  Ba7  1  0.33333  0.66667  0.36889  1
 Ba  Ba8  1  0.33333  0.66667  0.53982  1
 Ba  Ba9  1  0.66667  0.33333  0.03982  1
 Ba  Ba10  1  0.33333  0.66667  0.96018  1
 Cl  Cl1  1  0.66667  0.33333  0.75000  1
 Cl  Cl2  1  0.33333  0.66667  0.25000  1
 In  In1  1  0.00000  0.00000  0.11216  1
 In  In2  1  0.00000  0.00000  0.88784  1
 In  In3  1  0.00000  0.00000  0.38784  1
 In  In4  1  0.00000  0.00000  0.61216  1
 Ir  Ir1  1  0.00000  0.00000  0.50000  1
 Ir  Ir2  1  0.00000  0.00000  0.00000  1
 O  O1  1  0.82696  0.65393  0.15547  1
 O  O2  1  0.15605  0.31210  0.04762  1
 O  O3  1  0.84395  0.68790  0.54762  1
 O  O4  1  0.17304  0.82696  0.84453  1
 O  O5  1  0.82696  0.17304  0.34453  1
 O  O6  1  0.15605  0.84395  0.45238  1
 O  O7  1  0.15605  0.84395  0.04762  1
 O  O8  1  0.34607  0.17304  0.34453  1
 O  O9  1  0.15605  0.31210  0.45238  1
 O  O10  1  0.84395  0.15605  0.95238  1
 O  O11  1  0.31210  0.15605  0.54762  1
 O  O12  1  0.33333  0.66667  0.75000  1
 O  O13  1  0.17304  0.34607  0.84453  1
 O  O14  1  0.31210  0.15605  0.95238  1
 O  O15  1  0.84395  0.68790  0.95238  1
 O  O16  1  0.34607  0.17304  0.15547  1
 O  O17  1  0.65393  0.82696  0.65547  1
 O  O18  1  0.84395  0.15605  0.54762  1
 O  O19  1  0.82696  0.17304  0.15547  1
 O  O20  1  0.68790  0.84395  0.04762  1
 O  O21  1  0.82696  0.65393  0.34453  1
 O  O22  1  0.17304  0.34607  0.65547  1
 O  O23  1  0.17304  0.82696  0.65547  1
 O  O24  1  0.66667  0.33333  0.25000  1
 O  O25  1  0.68790  0.84395  0.45238  1
 O  O26  1  0.65393  0.82696  0.84453  1
