CIF file written using JARVIS-Tools package.
data_NaLi2PO4
_symmetry_space_group_name_H-M  'Pnma'
_cell_length_a       4.9204
_cell_length_b       6.89303
_cell_length_c       9.9853
_cell_angle_alpha    90
_cell_angle_beta     90
_cell_angle_gamma    90

_symmetry_Int_Tables_number  62
_chemical_formula_structural  NaLi2PO4
_chemical_formula_sum  Na4Li8P4O6
_cell_volume  338.6656783465047
_cell_formula_units_Z  4
loop_
  _symmetry_equiv_pos_site_id
 _symmetry_equiv_pos_as_xyz
 1  'x, y, z'
loop_
 _atom_site_type_symbol
 _atom_site_label
 _atom_site_symmetry_multiplicity
 _atom_site_fract_x
 _atom_site_fract_y
 _atom_site_fract_z
 _atom_site_fract_occupancy
 Li  Li1  1  0.79094  0.99964  0.65596  1
 Li  Li2  1  0.29094  0.49964  0.84404  1
 Li  Li3  1  0.20906  0.00036  0.34404  1
 Li  Li4  1  0.70906  0.50036  0.15596  1
 Li  Li5  1  0.79094  0.50036  0.65596  1
 Li  Li6  1  0.29094  0.00036  0.84404  1
 Li  Li7  1  0.70906  0.99964  0.15596  1
 Li  Li8  1  0.20906  0.49964  0.34404  1
 Na  Na1  1  0.23907  0.75000  0.11264  1
 Na  Na2  1  0.76093  0.25000  0.88736  1
 Na  Na3  1  0.26093  0.75000  0.61264  1
 Na  Na4  1  0.73907  0.25000  0.38736  1
 O  O1  1  0.17426  0.43461  0.66207  1
 O  O2  1  0.17426  0.06539  0.66207  1
 O  O3  1  0.75762  0.75000  0.55664  1
 O  O4  1  0.32574  0.43461  0.16207  1
 O  O5  1  0.67426  0.93461  0.83793  1
 O  O6  1  0.32574  0.06539  0.16207  1
 O  O7  1  0.61170  0.25000  0.61961  1
 O  O8  1  0.74238  0.75000  0.05664  1
 O  O9  1  0.82574  0.56539  0.33793  1
 O  O10  1  0.82574  0.93461  0.33793  1
 O  O11  1  0.88830  0.25000  0.11961  1
 O  O12  1  0.11170  0.75000  0.88039  1
 O  O13  1  0.25762  0.25000  0.94336  1
 O  O14  1  0.24238  0.25000  0.44336  1
 O  O15  1  0.38830  0.75000  0.38039  1
 O  O16  1  0.67426  0.56539  0.83793  1
 P  P1  1  0.29736  0.25000  0.59737  1
 P  P2  1  0.79736  0.75000  0.90263  1
 P  P3  1  0.70264  0.75000  0.40263  1
 P  P4  1  0.20264  0.25000  0.09737  1
