CIF file written using JARVIS-Tools package.
data_TmBr
_symmetry_space_group_name_H-M  'P6_3mc'
_cell_length_a       3.60014
_cell_length_b       3.60014
_cell_length_c       9.89141
_cell_angle_alpha    90
_cell_angle_beta     90
_cell_angle_gamma    120

_symmetry_Int_Tables_number  186
_chemical_formula_structural  TmBr
_chemical_formula_sum  Tm2Br2
_cell_volume  111.02656885323563
_cell_formula_units_Z  2
loop_
  _symmetry_equiv_pos_site_id
 _symmetry_equiv_pos_as_xyz
 1  'x, y, z'
loop_
 _atom_site_type_symbol
 _atom_site_label
 _atom_site_symmetry_multiplicity
 _atom_site_fract_x
 _atom_site_fract_y
 _atom_site_fract_z
 _atom_site_fract_occupancy
 Br  Br1  1  0.66667  0.33333  0.54434  1
 Br  Br2  1  0.33333  0.66667  0.04434  1
 Tm  Tm1  1  0.66667  0.33333  0.83066  1
 Tm  Tm2  1  0.33333  0.66667  0.33066  1
