CIF file written using JARVIS-Tools package.
data_LaNi2GeP
_symmetry_space_group_name_H-M  'I4mm'
_cell_length_a       5.70388
_cell_length_b       5.70388
_cell_length_c       5.70388
_cell_angle_alpha    137.849
_cell_angle_beta     137.849
_cell_angle_gamma    61.1341

_symmetry_Int_Tables_number  107
_chemical_formula_structural  LaNi2GeP
_chemical_formula_sum  LaNi2GeP
_cell_volume  82.64616430458595
_cell_formula_units_Z  1
loop_
  _symmetry_equiv_pos_site_id
 _symmetry_equiv_pos_as_xyz
 1  'x, y, z'
loop_
 _atom_site_type_symbol
 _atom_site_label
 _atom_site_symmetry_multiplicity
 _atom_site_fract_x
 _atom_site_fract_y
 _atom_site_fract_z
 _atom_site_fract_occupancy
 Ge  Ge1  1  0.36981  0.36981  -0.00000  1
 La  La1  1  0.00329  0.00329  0.00000  1
 Ni  Ni1  1  0.74490  0.24490  0.50000  1
 Ni  Ni2  1  0.24490  0.74490  0.50000  1
 P  P1  1  0.63710  0.63710  -0.00000  1
