CIF file written using JARVIS-Tools package.
data_GeMoAs
_symmetry_space_group_name_H-M  'C2/m'
_cell_length_a       4.94735
_cell_length_b       4.94735
_cell_length_c       7.72758
_cell_angle_alpha    62.133
_cell_angle_beta     62.133
_cell_angle_gamma    39.1097

_symmetry_Int_Tables_number  12
_chemical_formula_structural  GeMoAs
_chemical_formula_sum  Ge2Mo2As2
_cell_volume  103.59930484679484
_cell_formula_units_Z  2
loop_
  _symmetry_equiv_pos_site_id
 _symmetry_equiv_pos_as_xyz
 1  'x, y, z'
loop_
 _atom_site_type_symbol
 _atom_site_label
 _atom_site_symmetry_multiplicity
 _atom_site_fract_x
 _atom_site_fract_y
 _atom_site_fract_z
 _atom_site_fract_occupancy
 As  As1  1  0.85470  0.85470  0.53701  1
 As  As2  1  0.14530  0.14530  0.46299  1
 Ge  Ge1  1  0.39682  0.39682  0.89703  1
 Ge  Ge2  1  0.60318  0.60318  0.10297  1
 Mo  Mo1  1  0.15461  0.15461  0.79906  1
 Mo  Mo2  1  0.84539  0.84539  0.20094  1
