CIF file written using JARVIS-Tools package.
data_NbZnPb2O6
_symmetry_space_group_name_H-M  'R3m'
_cell_length_a       5.83676
_cell_length_b       5.83677
_cell_length_c       5.83677
_cell_angle_alpha    59.0023
_cell_angle_beta     59.0023
_cell_angle_gamma    59.0023

_symmetry_Int_Tables_number  160
_chemical_formula_structural  NbZnPb2O6
_chemical_formula_sum  NbZnPb2O6
_cell_volume  137.40564905296415
_cell_formula_units_Z  1
loop_
  _symmetry_equiv_pos_site_id
 _symmetry_equiv_pos_as_xyz
 1  'x, y, z'
loop_
 _atom_site_type_symbol
 _atom_site_label
 _atom_site_symmetry_multiplicity
 _atom_site_fract_x
 _atom_site_fract_y
 _atom_site_fract_z
 _atom_site_fract_occupancy
 Nb  Nb1  1  0.48917  0.48917  0.48917  1
 O  O1  1  0.72391  0.72391  0.21368  1
 O  O2  1  0.23322  0.23322  0.70011  1
 O  O3  1  0.72391  0.21368  0.72391  1
 O  O4  1  0.23322  0.70011  0.23322  1
 O  O5  1  0.21368  0.72391  0.72391  1
 O  O6  1  0.70011  0.23322  0.23322  1
 Pb  Pb1  1  0.75579  0.75579  0.75579  1
 Pb  Pb2  1  0.25975  0.25975  0.25975  1
 Zn  Zn1  1  0.98826  0.98826  0.98826  1
