CIF file written using JARVIS-Tools package.
data_K3Bi2
_symmetry_space_group_name_H-M  'C2/c'
_cell_length_a       6.74367
_cell_length_b       6.74367
_cell_length_c       9.31396
_cell_angle_alpha    79.7504
_cell_angle_beta     79.7504
_cell_angle_gamma    92.4507

_symmetry_Int_Tables_number  15
_chemical_formula_structural  K3Bi2
_chemical_formula_sum  K6Bi4
_cell_volume  408.9469555653863
_cell_formula_units_Z  2
loop_
  _symmetry_equiv_pos_site_id
 _symmetry_equiv_pos_as_xyz
 1  'x, y, z'
loop_
 _atom_site_type_symbol
 _atom_site_label
 _atom_site_symmetry_multiplicity
 _atom_site_fract_x
 _atom_site_fract_y
 _atom_site_fract_z
 _atom_site_fract_occupancy
 Bi  Bi1  1  0.32583  0.88786  0.84790  1
 Bi  Bi2  1  0.67417  0.11214  0.15210  1
 Bi  Bi3  1  0.11214  0.67417  0.65210  1
 Bi  Bi4  1  0.88786  0.32583  0.34790  1
 K  K1  1  0.65206  0.75980  0.51327  1
 K  K2  1  0.34794  0.24020  0.48673  1
 K  K3  1  0.24020  0.34794  0.98673  1
 K  K4  1  0.75980  0.65206  0.01327  1
 K  K5  1  0.84745  0.15255  0.75000  1
 K  K6  1  0.15255  0.84745  0.25000  1
