CIF file written using JARVIS-Tools package.
data_LiVFeO4
_symmetry_space_group_name_H-M  'P4_122'
_cell_length_a       5.88054
_cell_length_b       5.88051
_cell_length_c       8.18684
_cell_angle_alpha    90
_cell_angle_beta     90.0005
_cell_angle_gamma    90

_symmetry_Int_Tables_number  91
_chemical_formula_structural  LiVFeO4
_chemical_formula_sum  Li4V4Fe4O6
_cell_volume  283.10542235873703
_cell_formula_units_Z  4
loop_
  _symmetry_equiv_pos_site_id
 _symmetry_equiv_pos_as_xyz
 1  'x, y, z'
loop_
 _atom_site_type_symbol
 _atom_site_label
 _atom_site_symmetry_multiplicity
 _atom_site_fract_x
 _atom_site_fract_y
 _atom_site_fract_z
 _atom_site_fract_occupancy
 Fe  Fe1  1  0.25386  0.25386  0.87500  1
 Fe  Fe2  1  0.74613  0.74613  0.37500  1
 Fe  Fe3  1  0.25387  0.74613  0.62500  1
 Fe  Fe4  1  0.74614  0.25386  0.12500  1
 Li  Li1  1  0.75910  1.00000  0.75000  1
 Li  Li2  1  0.00000  0.24090  0.50000  1
 Li  Li3  1  0.00000  0.75909  0.00000  1
 Li  Li4  1  0.24090  1.00000  0.25000  1
 O  O1  1  0.73108  0.02359  0.49351  1
 O  O2  1  0.97641  0.73108  0.74352  1
 O  O3  1  0.02359  0.73108  0.25648  1
 O  O4  1  0.26677  0.51056  0.01756  1
 O  O5  1  0.51056  0.73323  0.76756  1
 O  O6  1  0.48944  0.73323  0.23244  1
 O  O7  1  0.26892  0.97640  0.99351  1
 O  O8  1  0.73108  0.97640  0.00649  1
 O  O9  1  0.73323  0.48944  0.51756  1
 O  O10  1  0.97641  0.26892  0.75648  1
 O  O11  1  0.48944  0.26676  0.26756  1
 O  O12  1  0.51056  0.26676  0.73244  1
 O  O13  1  0.73323  0.51056  0.98244  1
 O  O14  1  0.02359  0.26892  0.24352  1
 O  O15  1  0.26677  0.48944  0.48244  1
 O  O16  1  0.26892  0.02359  0.50649  1
 V  V1  1  0.50000  0.22593  0.50000  1
 V  V2  1  0.22593  0.50000  0.25000  1
 V  V3  1  0.77407  0.50000  0.75000  1
 V  V4  1  0.50000  0.77406  -0.00000  1
