CIF file written using JARVIS-Tools package.
data_AgSbTe2
_symmetry_space_group_name_H-M  'P4/mmm'
_cell_length_a       6.1362
_cell_length_b       6.1362
_cell_length_c       6.10212
_cell_angle_alpha    90
_cell_angle_beta     90
_cell_angle_gamma    90

_symmetry_Int_Tables_number  123
_chemical_formula_structural  AgSbTe2
_chemical_formula_sum  Ag2Sb2Te4
_cell_volume  229.76330542029362
_cell_formula_units_Z  2
loop_
  _symmetry_equiv_pos_site_id
 _symmetry_equiv_pos_as_xyz
 1  'x, y, z'
loop_
 _atom_site_type_symbol
 _atom_site_label
 _atom_site_symmetry_multiplicity
 _atom_site_fract_x
 _atom_site_fract_y
 _atom_site_fract_z
 _atom_site_fract_occupancy
 Ag  Ag1  1  0.00000  0.50000  0.50000  1
 Ag  Ag2  1  0.50000  0.00000  0.50000  1
 Sb  Sb1  1  0.50000  0.50000  0.50000  1
 Sb  Sb2  1  0.50000  0.50000  0.00000  1
 Te  Te1  1  0.00000  0.50000  0.00000  1
 Te  Te2  1  0.00000  0.00000  0.50000  1
 Te  Te3  1  0.50000  0.00000  0.00000  1
 Te  Te4  1  0.00000  0.00000  0.00000  1
