CIF file written using JARVIS-Tools package.
data_MnSnTe2
_symmetry_space_group_name_H-M  'R-3m'
_cell_length_a       9.31989
_cell_length_b       9.31989
_cell_length_c       9.31989
_cell_angle_alpha    21.965
_cell_angle_beta     21.9651
_cell_angle_gamma    21.9651

_symmetry_Int_Tables_number  166
_chemical_formula_structural  MnSnTe2
_chemical_formula_sum  MnSnTe2
_cell_volume  99.2854910539508
_cell_formula_units_Z  1
loop_
  _symmetry_equiv_pos_site_id
 _symmetry_equiv_pos_as_xyz
 1  'x, y, z'
loop_
 _atom_site_type_symbol
 _atom_site_label
 _atom_site_symmetry_multiplicity
 _atom_site_fract_x
 _atom_site_fract_y
 _atom_site_fract_z
 _atom_site_fract_occupancy
 Mn  Mn1  1  0.00000  0.00000  0.00000  1
 Sn  Sn1  1  0.50000  0.50000  0.50000  1
 Te  Te1  1  0.27453  0.27453  0.27453  1
 Te  Te2  1  0.72547  0.72547  0.72547  1
