CIF file written using JARVIS-Tools package.
data_Sc5Si7Pt9
_symmetry_space_group_name_H-M  'P-6'
_cell_length_a       10.0489
_cell_length_b       10.0489
_cell_length_c       3.91379
_cell_angle_alpha    90
_cell_angle_beta     90
_cell_angle_gamma    120

_symmetry_Int_Tables_number  174
_chemical_formula_structural  Sc5Si7Pt9
_chemical_formula_sum  Sc5Si7Pt9
_cell_volume  342.26539192116104
_cell_formula_units_Z  1
loop_
  _symmetry_equiv_pos_site_id
 _symmetry_equiv_pos_as_xyz
 1  'x, y, z'
loop_
 _atom_site_type_symbol
 _atom_site_label
 _atom_site_symmetry_multiplicity
 _atom_site_fract_x
 _atom_site_fract_y
 _atom_site_fract_z
 _atom_site_fract_occupancy
 Pt  Pt1  1  0.12392  0.28362  0.00000  1
 Pt  Pt2  1  0.43437  0.34808  0.00000  1
 Pt  Pt3  1  0.91371  0.56563  0.00000  1
 Pt  Pt4  1  0.65192  0.08629  0.00000  1
 Pt  Pt5  1  0.05259  0.45052  0.50000  1
 Pt  Pt6  1  0.39794  0.94741  0.50000  1
 Pt  Pt7  1  0.54948  0.60206  0.50000  1
 Pt  Pt8  1  0.15970  0.87608  0.00000  1
 Pt  Pt9  1  0.71638  0.84030  0.00000  1
 Sc  Sc1  1  0.33333  0.66667  0.00000  1
 Sc  Sc2  1  0.87486  0.10473  0.50000  1
 Sc  Sc3  1  0.89527  0.77013  0.50000  1
 Sc  Sc4  1  0.22987  0.12514  0.50000  1
 Sc  Sc5  1  0.66667  0.33333  0.50000  1
 Si  Si1  1  0.42788  0.11124  0.00000  1
 Si  Si2  1  0.28264  0.42731  0.50000  1
 Si  Si3  1  0.88876  0.31664  0.00000  1
 Si  Si4  1  0.68336  0.57212  0.00000  1
 Si  Si5  1  0.00000  0.00000  0.00000  1
 Si  Si6  1  0.14468  0.71736  0.50000  1
 Si  Si7  1  0.57269  0.85532  0.50000  1
