CIF file written using JARVIS-Tools package.
data_MnCr2Se3S
_symmetry_space_group_name_H-M  'Cm'
_cell_length_a       6.84377
_cell_length_b       6.84376
_cell_length_c       6.2929
_cell_angle_alpha    63.9796
_cell_angle_beta     63.9796
_cell_angle_gamma    31.0656

_symmetry_Int_Tables_number  8
_chemical_formula_structural  MnCr2Se3S
_chemical_formula_sum  MnCr2Se3S
_cell_volume  135.41199620615606
_cell_formula_units_Z  1
loop_
  _symmetry_equiv_pos_site_id
 _symmetry_equiv_pos_as_xyz
 1  'x, y, z'
loop_
 _atom_site_type_symbol
 _atom_site_label
 _atom_site_symmetry_multiplicity
 _atom_site_fract_x
 _atom_site_fract_y
 _atom_site_fract_z
 _atom_site_fract_occupancy
 Cr  Cr1  1  0.74412  0.74412  0.23846  1
 Cr  Cr2  1  0.26183  0.26183  0.76081  1
 Mn  Mn1  1  0.99878  0.99878  0.98595  1
 S  S1  1  0.86614  0.86614  0.81459  1
 Se  Se1  1  0.12318  0.12318  0.20606  1
 Se  Se2  1  0.63629  0.63629  0.69653  1
 Se  Se3  1  0.36966  0.36966  0.29761  1
