CIF file written using JARVIS-Tools package.
data_ZnPb2N2
_symmetry_space_group_name_H-M  'Pmmn'
_cell_length_a       3.61478
_cell_length_b       6.33717
_cell_length_c       11.0427
_cell_angle_alpha    90
_cell_angle_beta     90
_cell_angle_gamma    90

_symmetry_Int_Tables_number  59
_chemical_formula_structural  ZnPb2N2
_chemical_formula_sum  Zn2Pb4N4
_cell_volume  252.9618567577129
_cell_formula_units_Z  2
loop_
  _symmetry_equiv_pos_site_id
 _symmetry_equiv_pos_as_xyz
 1  'x, y, z'
loop_
 _atom_site_type_symbol
 _atom_site_label
 _atom_site_symmetry_multiplicity
 _atom_site_fract_x
 _atom_site_fract_y
 _atom_site_fract_z
 _atom_site_fract_occupancy
 N  N1  1  0.75000  0.37497  0.58547  1
 N  N2  1  0.75000  0.37497  0.91453  1
 N  N3  1  0.25000  0.62503  0.41453  1
 N  N4  1  0.25000  0.62503  0.08547  1
 Pb  Pb1  1  0.75000  0.73774  0.96917  1
 Pb  Pb2  1  0.75000  0.73774  0.53083  1
 Pb  Pb3  1  0.25000  0.26226  0.03083  1
 Pb  Pb4  1  0.25000  0.26226  0.46917  1
 Zn  Zn1  1  0.75000  0.34264  0.75000  1
 Zn  Zn2  1  0.25000  0.65736  0.25000  1
