CIF file written using JARVIS-Tools package.
data_RbPH2O4
_symmetry_space_group_name_H-M  'I-42d'
_cell_length_a       6.46407
_cell_length_b       6.46407
_cell_length_c       6.46407
_cell_angle_alpha    108.414
_cell_angle_beta     108.414
_cell_angle_gamma    111.607

_symmetry_Int_Tables_number  122
_chemical_formula_structural  RbPH2O4
_chemical_formula_sum  Rb2P2H4O8
_cell_volume  207.70272546027002
_cell_formula_units_Z  2
loop_
  _symmetry_equiv_pos_site_id
 _symmetry_equiv_pos_as_xyz
 1  'x, y, z'
loop_
 _atom_site_type_symbol
 _atom_site_label
 _atom_site_symmetry_multiplicity
 _atom_site_fract_x
 _atom_site_fract_y
 _atom_site_fract_z
 _atom_site_fract_occupancy
 H  H1  1  0.73430  0.12500  0.10930  1
 H  H2  1  0.01570  0.62500  0.89070  1
 H  H3  1  0.37500  0.26570  0.39070  1
 H  H4  1  0.87500  0.98430  0.60930  1
 O  O1  1  0.72828  0.28146  0.26672  1
 O  O2  1  0.73526  0.96854  0.94682  1
 O  O3  1  0.01474  0.46156  0.73328  1
 O  O4  1  0.02172  0.78844  0.05318  1
 O  O5  1  0.53844  0.27172  0.55318  1
 O  O6  1  0.03146  0.97828  0.76672  1
 O  O7  1  0.71854  0.98526  0.44682  1
 O  O8  1  0.21156  0.26474  0.23328  1
 P  P1  1  0.75000  0.25000  0.50000  1
 P  P2  1  0.00000  0.00000  0.00000  1
 Rb  Rb1  1  0.25000  0.75000  0.50000  1
 Rb  Rb2  1  0.50000  0.50000  0.00000  1
