CIF file written using JARVIS-Tools package.
data_NaSrNb2O6
_symmetry_space_group_name_H-M  'Cmmm'
_cell_length_a       5.6523
_cell_length_b       5.6523
_cell_length_c       4.06837
_cell_angle_alpha    90
_cell_angle_beta     90
_cell_angle_gamma    90.1687

_symmetry_Int_Tables_number  65
_chemical_formula_structural  NaSrNb2O6
_chemical_formula_sum  NaSrNb2O6
_cell_volume  129.97775736845477
_cell_formula_units_Z  1
loop_
  _symmetry_equiv_pos_site_id
 _symmetry_equiv_pos_as_xyz
 1  'x, y, z'
loop_
 _atom_site_type_symbol
 _atom_site_label
 _atom_site_symmetry_multiplicity
 _atom_site_fract_x
 _atom_site_fract_y
 _atom_site_fract_z
 _atom_site_fract_occupancy
 Na  Na1  1  0.50000  0.50000  0.50000  1
 Nb  Nb1  1  0.50000  -0.00000  0.00000  1
 Nb  Nb2  1  0.00000  0.50000  0.00000  1
 O  O1  1  0.20333  0.79667  0.00000  1
 O  O2  1  0.79667  0.20333  0.00000  1
 O  O3  1  0.71165  0.71165  0.00000  1
 O  O4  1  0.28835  0.28835  0.00000  1
 O  O5  1  0.50000  -0.00000  0.50000  1
 O  O6  1  0.00000  0.50000  0.50000  1
 Sr  Sr1  1  0.00000  0.00000  0.50000  1
