CIF file written using JARVIS-Tools package.
data_SmSiRu2C
_symmetry_space_group_name_H-M  'Cmcm'
_cell_length_a       5.89346
_cell_length_b       5.89346
_cell_length_c       7.18361
_cell_angle_alpha    90
_cell_angle_beta     90
_cell_angle_gamma    141.538

_symmetry_Int_Tables_number  63
_chemical_formula_structural  SmSiRu2C
_chemical_formula_sum  Sm2Si2Ru4C2
_cell_volume  155.19206591737355
_cell_formula_units_Z  2
loop_
  _symmetry_equiv_pos_site_id
 _symmetry_equiv_pos_as_xyz
 1  'x, y, z'
loop_
 _atom_site_type_symbol
 _atom_site_label
 _atom_site_symmetry_multiplicity
 _atom_site_fract_x
 _atom_site_fract_y
 _atom_site_fract_z
 _atom_site_fract_occupancy
 C  C1  1  0.00000  0.00000  0.00000  1
 C  C2  1  0.00000  0.00000  0.50000  1
 Ru  Ru1  1  0.83540  0.16460  0.05755  1
 Ru  Ru2  1  0.16460  0.83540  0.94245  1
 Ru  Ru3  1  0.16460  0.83540  0.55755  1
 Ru  Ru4  1  0.83540  0.16460  0.44245  1
 Si  Si1  1  0.27074  0.72926  0.25000  1
 Si  Si2  1  0.72926  0.27074  0.75000  1
 Sm  Sm1  1  0.54924  0.45076  0.25000  1
 Sm  Sm2  1  0.45076  0.54924  0.75000  1
