CIF file written using JARVIS-Tools package.
data_HoMg5
_symmetry_space_group_name_H-M  'C2/m'
_cell_length_a       5.62945
_cell_length_b       5.62945
_cell_length_c       6.6025
_cell_angle_alpha    73.4153
_cell_angle_beta     73.4153
_cell_angle_gamma    45.7537

_symmetry_Int_Tables_number  12
_chemical_formula_structural  HoMg5
_chemical_formula_sum  HoMg5
_cell_volume  142.51265181079577
_cell_formula_units_Z  1
loop_
  _symmetry_equiv_pos_site_id
 _symmetry_equiv_pos_as_xyz
 1  'x, y, z'
loop_
 _atom_site_type_symbol
 _atom_site_label
 _atom_site_symmetry_multiplicity
 _atom_site_fract_x
 _atom_site_fract_y
 _atom_site_fract_z
 _atom_site_fract_occupancy
 Ho  Ho1  1  0.50000  0.50000  0.50000  1
 Mg  Mg1  1  0.16410  0.16410  0.67646  1
 Mg  Mg2  1  0.82398  0.82398  0.83684  1
 Mg  Mg3  1  0.50000  0.50000  0.00000  1
 Mg  Mg4  1  0.17602  0.17602  0.16316  1
 Mg  Mg5  1  0.83590  0.83590  0.32354  1
