CIF file written using JARVIS-Tools package.
data_TaSiGe
_symmetry_space_group_name_H-M  'P3_212'
_cell_length_a       4.92433
_cell_length_b       4.92433
_cell_length_c       6.7078
_cell_angle_alpha    90
_cell_angle_beta     90
_cell_angle_gamma    120

_symmetry_Int_Tables_number  153
_chemical_formula_structural  TaSiGe
_chemical_formula_sum  Ta3Si3Ge3
_cell_volume  140.86565261731477
_cell_formula_units_Z  3
loop_
  _symmetry_equiv_pos_site_id
 _symmetry_equiv_pos_as_xyz
 1  'x, y, z'
loop_
 _atom_site_type_symbol
 _atom_site_label
 _atom_site_symmetry_multiplicity
 _atom_site_fract_x
 _atom_site_fract_y
 _atom_site_fract_z
 _atom_site_fract_occupancy
 Ge  Ge1  1  0.65859  0.82930  0.50000  1
 Ge  Ge2  1  0.17070  0.82930  0.16667  1
 Ge  Ge3  1  0.17070  0.34141  0.83333  1
 Si  Si1  1  0.00981  0.50491  0.50000  1
 Si  Si2  1  0.49509  0.50491  0.16667  1
 Si  Si3  1  0.49509  0.99019  0.83333  1
 Ta  Ta1  1  0.33829  0.16914  0.50000  1
 Ta  Ta2  1  0.83086  0.16914  0.16667  1
 Ta  Ta3  1  0.83086  0.66171  0.83333  1
