CIF file written using JARVIS-Tools package.
data_UH3
_symmetry_space_group_name_H-M  'Pm-3n'
_cell_length_a       6.62084
_cell_length_b       6.62084
_cell_length_c       6.62084
_cell_angle_alpha    90
_cell_angle_beta     90
_cell_angle_gamma    90

_symmetry_Int_Tables_number  223
_chemical_formula_structural  UH3
_chemical_formula_sum  U8H24
_cell_volume  290.22831661030466
_cell_formula_units_Z  8
loop_
  _symmetry_equiv_pos_site_id
 _symmetry_equiv_pos_as_xyz
 1  'x, y, z'
loop_
 _atom_site_type_symbol
 _atom_site_label
 _atom_site_symmetry_multiplicity
 _atom_site_fract_x
 _atom_site_fract_y
 _atom_site_fract_z
 _atom_site_fract_occupancy
 H  H1  1  0.69626  0.00000  0.15597  1
 H  H2  1  0.00000  0.15597  0.30374  1
 H  H3  1  0.50000  0.19626  0.65597  1
 H  H4  1  0.50000  0.80374  0.34403  1
 H  H5  1  0.80374  0.65597  0.50000  1
 H  H6  1  0.19626  0.65597  0.50000  1
 H  H7  1  0.34403  0.50000  0.80374  1
 H  H8  1  0.65597  0.50000  0.80374  1
 H  H9  1  0.50000  0.80374  0.65597  1
 H  H10  1  0.15597  0.30374  0.00000  1
 H  H11  1  0.84403  0.69626  0.00000  1
 H  H12  1  0.30374  0.00000  0.15597  1
 H  H13  1  0.84403  0.30374  0.00000  1
 H  H14  1  0.00000  0.84403  0.30374  1
 H  H15  1  0.19626  0.34403  0.50000  1
 H  H16  1  0.50000  0.19626  0.34403  1
 H  H17  1  0.34403  0.50000  0.19626  1
 H  H18  1  0.65597  0.50000  0.19626  1
 H  H19  1  0.80374  0.34403  0.50000  1
 H  H20  1  0.00000  0.15597  0.69626  1
 H  H21  1  0.00000  0.84403  0.69626  1
 H  H22  1  0.15597  0.69626  0.00000  1
 H  H23  1  0.69626  0.00000  0.84403  1
 H  H24  1  0.30374  0.00000  0.84403  1
 U  U1  1  0.50000  0.25000  0.00000  1
 U  U2  1  0.50000  0.75000  0.00000  1
 U  U3  1  0.00000  0.50000  0.75000  1
 U  U4  1  0.00000  0.50000  0.25000  1
 U  U5  1  0.75000  0.00000  0.50000  1
 U  U6  1  0.25000  0.00000  0.50000  1
 U  U7  1  0.50000  0.50000  0.50000  1
 U  U8  1  0.00000  0.00000  0.00000  1
