CIF file written using JARVIS-Tools package.
data_Rb2Ti6O13
_symmetry_space_group_name_H-M  'C2/m'
_cell_length_a       3.83807
_cell_length_b       8.24097
_cell_length_c       9.18889
_cell_angle_alpha    100.079
_cell_angle_beta     90
_cell_angle_gamma    103.466

_symmetry_Int_Tables_number  12
_chemical_formula_structural  Rb2Ti6O13
_chemical_formula_sum  Rb2Ti6O3
_cell_volume  278.03607152900116
_cell_formula_units_Z  1
loop_
  _symmetry_equiv_pos_site_id
 _symmetry_equiv_pos_as_xyz
 1  'x, y, z'
loop_
 _atom_site_type_symbol
 _atom_site_label
 _atom_site_symmetry_multiplicity
 _atom_site_fract_x
 _atom_site_fract_y
 _atom_site_fract_z
 _atom_site_fract_occupancy
 O  O1  1  0.86165  0.72331  0.38426  1
 O  O2  1  0.00000  0.00000  0.00000  1
 O  O3  1  0.23848  0.47696  0.23908  1
 O  O4  1  0.16970  0.33940  0.91771  1
 O  O5  1  0.08142  0.16285  0.29001  1
 O  O6  1  0.91858  0.83715  0.70999  1
 O  O7  1  0.76152  0.52304  0.76092  1
 O  O8  1  0.70348  0.40696  0.42801  1
 O  O9  1  0.13835  0.27669  0.61574  1
 O  O10  1  0.29652  0.59304  0.57199  1
 O  O11  1  0.83030  0.66060  0.08229  1
 O  O12  1  0.64104  0.28208  0.11057  1
 O  O13  1  0.35896  0.71792  0.88943  1
 Rb  Rb1  1  0.54493  0.08986  0.74908  1
 Rb  Rb2  1  0.45507  0.91014  0.25092  1
 Ti  Ti1  1  0.76591  0.53181  0.22105  1
 Ti  Ti2  1  0.23409  0.46819  0.77895  1
 Ti  Ti3  1  0.82624  0.65248  0.56258  1
 Ti  Ti4  1  0.17376  0.34752  0.43742  1
 Ti  Ti5  1  0.88542  0.77084  0.90489  1
 Ti  Ti6  1  0.11458  0.22916  0.09511  1
