CIF file written using JARVIS-Tools package.
data_VOF2
_symmetry_space_group_name_H-M  'Imm2'
_cell_length_a       3.77005
_cell_length_b       4.99597
_cell_length_c       2.82104
_cell_angle_alpha    73.5373
_cell_angle_beta     89.999
_cell_angle_gamma    67.8364

_symmetry_Int_Tables_number  44
_chemical_formula_structural  VOF2
_chemical_formula_sum  VOF2
_cell_volume  46.847958810976166
_cell_formula_units_Z  1
loop_
  _symmetry_equiv_pos_site_id
 _symmetry_equiv_pos_as_xyz
 1  'x, y, z'
loop_
 _atom_site_type_symbol
 _atom_site_label
 _atom_site_symmetry_multiplicity
 _atom_site_fract_x
 _atom_site_fract_y
 _atom_site_fract_z
 _atom_site_fract_occupancy
 F  F1  1  0.82676  0.29701  0.34454  1
 F  F2  1  0.13028  0.68982  0.64918  1
 O  O1  1  0.48591  0.99342  0.99683  1
 V  V1  1  0.05098  0.99342  0.99686  1
