CIF file written using JARVIS-Tools package.
data_Li2MnNiO4
_symmetry_space_group_name_H-M  'P2/m'
_cell_length_a       2.83592
_cell_length_b       5.06066
_cell_length_c       5.12799
_cell_angle_alpha    68.2006
_cell_angle_beta     90
_cell_angle_gamma    90

_symmetry_Int_Tables_number  10
_chemical_formula_structural  Li2MnNiO4
_chemical_formula_sum  Li2MnNiO4
_cell_volume  68.33223422409864
_cell_formula_units_Z  1
loop_
  _symmetry_equiv_pos_site_id
 _symmetry_equiv_pos_as_xyz
 1  'x, y, z'
loop_
 _atom_site_type_symbol
 _atom_site_label
 _atom_site_symmetry_multiplicity
 _atom_site_fract_x
 _atom_site_fract_y
 _atom_site_fract_z
 _atom_site_fract_occupancy
 Li  Li1  1  0.00000  0.00000  0.00000  1
 Li  Li2  1  0.50000  -0.00000  0.50000  1
 Mn  Mn1  1  0.00000  0.50000  0.50000  1
 Ni  Ni1  1  0.50000  0.50000  -0.00000  1
 O  O1  1  0.00000  0.28958  0.25687  1
 O  O2  1  0.50000  0.26000  0.72683  1
 O  O3  1  0.00000  0.71042  0.74313  1
 O  O4  1  0.50000  0.74000  0.27317  1
