CIF file written using JARVIS-Tools package.
data_Mn3Ni4Sn
_symmetry_space_group_name_H-M  'R-3m'
_cell_length_a       7.30476
_cell_length_b       7.30476
_cell_length_c       7.30476
_cell_angle_alpha    32.9768
_cell_angle_beta     32.9768
_cell_angle_gamma    32.9768

_symmetry_Int_Tables_number  166
_chemical_formula_structural  Mn3Ni4Sn
_chemical_formula_sum  Mn3Ni4Sn
_cell_volume  102.7601442899038
_cell_formula_units_Z  1
loop_
  _symmetry_equiv_pos_site_id
 _symmetry_equiv_pos_as_xyz
 1  'x, y, z'
loop_
 _atom_site_type_symbol
 _atom_site_label
 _atom_site_symmetry_multiplicity
 _atom_site_fract_x
 _atom_site_fract_y
 _atom_site_fract_z
 _atom_site_fract_occupancy
 Mn  Mn1  1  0.24434  0.24434  0.24434  1
 Mn  Mn2  1  0.75566  0.75566  0.75566  1
 Mn  Mn3  1  0.50000  0.50000  0.50000  1
 Ni  Ni1  1  0.61964  0.61964  0.61964  1
 Ni  Ni2  1  0.12562  0.12562  0.12562  1
 Ni  Ni3  1  0.87438  0.87438  0.87438  1
 Ni  Ni4  1  0.38036  0.38036  0.38036  1
 Sn  Sn1  1  0.00000  0.00000  0.00000  1
