CIF file written using JARVIS-Tools package.
data_CrCl3
_symmetry_space_group_name_H-M  'P-31m'
_cell_length_a       5.97262
_cell_length_b       5.97262
_cell_length_c       17.3523
_cell_angle_alpha    90
_cell_angle_beta     90
_cell_angle_gamma    120

_symmetry_Int_Tables_number  162
_chemical_formula_structural  CrCl3
_chemical_formula_sum  Cr6Cl8
_cell_volume  536.0647540428298
_cell_formula_units_Z  6
loop_
  _symmetry_equiv_pos_site_id
 _symmetry_equiv_pos_as_xyz
 1  'x, y, z'
loop_
 _atom_site_type_symbol
 _atom_site_label
 _atom_site_symmetry_multiplicity
 _atom_site_fract_x
 _atom_site_fract_y
 _atom_site_fract_z
 _atom_site_fract_occupancy
 Cl  Cl1  1  0.98148  0.66634  0.41010  1
 Cl  Cl2  1  0.68529  0.66684  0.92325  1
 Cl  Cl3  1  0.98148  0.31514  0.58990  1
 Cl  Cl4  1  0.68529  0.01846  0.07675  1
 Cl  Cl5  1  0.33318  0.01798  0.25658  1
 Cl  Cl6  1  0.33318  0.31520  0.74342  1
 Cl  Cl7  1  0.98154  0.31471  0.25658  1
 Cl  Cl8  1  0.33316  0.31471  0.41009  1
 Cl  Cl9  1  0.98154  0.66684  0.74342  1
 Cl  Cl10  1  0.68486  0.01852  0.74344  1
 Cl  Cl11  1  0.98202  0.31520  0.92324  1
 Cl  Cl12  1  0.33366  0.01852  0.92323  1
 Cl  Cl13  1  0.98202  0.66682  0.07676  1
 Cl  Cl14  1  0.33366  0.31514  0.07677  1
 Cl  Cl15  1  0.68480  0.01798  0.41009  1
 Cl  Cl16  1  0.68480  0.66682  0.58991  1
 Cl  Cl17  1  0.33316  0.01846  0.58991  1
 Cl  Cl18  1  0.68486  0.66634  0.25656  1
 Cr  Cr1  1  0.00033  0.00016  0.00000  1
 Cr  Cr2  1  0.66699  0.33349  0.00000  1
 Cr  Cr3  1  0.66651  0.33301  0.33333  1
 Cr  Cr4  1  0.99984  0.99967  0.33333  1
 Cr  Cr5  1  0.66651  0.33349  0.66667  1
 Cr  Cr6  1  0.99984  0.00016  0.66667  1
