CIF file written using JARVIS-Tools package.
data_ScBiO3
_symmetry_space_group_name_H-M  'R-3'
_cell_length_a       5.97128
_cell_length_b       5.97127
_cell_length_c       5.97127
_cell_angle_alpha    57.1199
_cell_angle_beta     57.1199
_cell_angle_gamma    57.1198

_symmetry_Int_Tables_number  148
_chemical_formula_structural  ScBiO3
_chemical_formula_sum  Sc2Bi2O6
_cell_volume  140.55982293051372
_cell_formula_units_Z  2
loop_
  _symmetry_equiv_pos_site_id
 _symmetry_equiv_pos_as_xyz
 1  'x, y, z'
loop_
 _atom_site_type_symbol
 _atom_site_label
 _atom_site_symmetry_multiplicity
 _atom_site_fract_x
 _atom_site_fract_y
 _atom_site_fract_z
 _atom_site_fract_occupancy
 Bi  Bi1  1  0.63646  0.63646  0.63646  1
 Bi  Bi2  1  0.36354  0.36354  0.36354  1
 O  O1  1  0.55334  0.98340  0.20262  1
 O  O2  1  0.79738  0.44666  0.01660  1
 O  O3  1  0.01660  0.79738  0.44666  1
 O  O4  1  0.98340  0.20262  0.55334  1
 O  O5  1  0.20262  0.55334  0.98340  1
 O  O6  1  0.44666  0.01660  0.79738  1
 Sc  Sc1  1  0.85201  0.85201  0.85201  1
 Sc  Sc2  1  0.14799  0.14799  0.14799  1
