CIF file written using JARVIS-Tools package.
data_Ti3WC4
_symmetry_space_group_name_H-M  'R-3m'
_cell_length_a       10.2225
_cell_length_b       10.2225
_cell_length_c       10.2225
_cell_angle_alpha    17.2626
_cell_angle_beta     17.2625
_cell_angle_gamma    17.2625

_symmetry_Int_Tables_number  166
_chemical_formula_structural  Ti3WC4
_chemical_formula_sum  Ti3WC4
_cell_volume  82.08352250767078
_cell_formula_units_Z  1
loop_
  _symmetry_equiv_pos_site_id
 _symmetry_equiv_pos_as_xyz
 1  'x, y, z'
loop_
 _atom_site_type_symbol
 _atom_site_label
 _atom_site_symmetry_multiplicity
 _atom_site_fract_x
 _atom_site_fract_y
 _atom_site_fract_z
 _atom_site_fract_occupancy
 C  C1  1  0.12504  0.12504  0.12504  1
 C  C2  1  0.37518  0.37518  0.37518  1
 C  C3  1  0.62482  0.62482  0.62482  1
 C  C4  1  0.87496  0.87496  0.87496  1
 Ti  Ti1  1  0.24920  0.24920  0.24920  1
 Ti  Ti2  1  0.50000  0.50000  0.50000  1
 Ti  Ti3  1  0.75080  0.75080  0.75080  1
 W  W1  1  0.00000  0.00000  0.00000  1
