CIF file written using JARVIS-Tools package.
data_YFeCo
_symmetry_space_group_name_H-M  'Imma'
_cell_length_a       5.06994
_cell_length_b       5.06994
_cell_length_c       5.06994
_cell_angle_alpha    88.8445
_cell_angle_beta     62.3306
_cell_angle_gamma    121.029

_symmetry_Int_Tables_number  74
_chemical_formula_structural  YFeCo
_chemical_formula_sum  Y2Fe2Co2
_cell_volume  92.93846045087545
_cell_formula_units_Z  2
loop_
  _symmetry_equiv_pos_site_id
 _symmetry_equiv_pos_as_xyz
 1  'x, y, z'
loop_
 _atom_site_type_symbol
 _atom_site_label
 _atom_site_symmetry_multiplicity
 _atom_site_fract_x
 _atom_site_fract_y
 _atom_site_fract_z
 _atom_site_fract_occupancy
 Co  Co1  1  0.75000  0.37500  0.87500  1
 Co  Co2  1  0.25000  0.37500  0.37500  1
 Fe  Fe1  1  0.25000  0.87500  0.37500  1
 Fe  Fe2  1  0.75000  0.37500  0.37500  1
 Y  Y1  1  0.50000  0.75125  0.74875  1
 Y  Y2  1  -0.00000  -0.00125  0.00125  1
