CIF file written using JARVIS-Tools package.
data_SrCl2O2
_symmetry_space_group_name_H-M  'C2/c'
_cell_length_a       5.65312
_cell_length_b       5.65312
_cell_length_c       7.33938
_cell_angle_alpha    77.2072
_cell_angle_beta     77.2072
_cell_angle_gamma    63.1248

_symmetry_Int_Tables_number  15
_chemical_formula_structural  SrCl2O2
_chemical_formula_sum  Sr2Cl4O4
_cell_volume  202.02938956095937
_cell_formula_units_Z  2
loop_
  _symmetry_equiv_pos_site_id
 _symmetry_equiv_pos_as_xyz
 1  'x, y, z'
loop_
 _atom_site_type_symbol
 _atom_site_label
 _atom_site_symmetry_multiplicity
 _atom_site_fract_x
 _atom_site_fract_y
 _atom_site_fract_z
 _atom_site_fract_occupancy
 Cl  Cl1  1  0.71070  0.93286  0.73121  1
 Cl  Cl2  1  0.06714  0.28930  0.76879  1
 Cl  Cl3  1  0.28930  0.06714  0.26879  1
 Cl  Cl4  1  0.93286  0.71070  0.23121  1
 O  O1  1  0.23102  0.59302  0.09342  1
 O  O2  1  0.40698  0.76898  0.40658  1
 O  O3  1  0.76898  0.40698  0.90658  1
 O  O4  1  0.59302  0.23102  0.59342  1
 Sr  Sr1  1  0.64454  0.35546  0.25000  1
 Sr  Sr2  1  0.35546  0.64454  0.75000  1
