CIF file written using JARVIS-Tools package.
data_NaFe2O4
_symmetry_space_group_name_H-M  'P2/m'
_cell_length_a       2.85864
_cell_length_b       4.78086
_cell_length_c       5.72257
_cell_angle_alpha    107.197
_cell_angle_beta     89.9903
_cell_angle_gamma    89.9975

_symmetry_Int_Tables_number  10
_chemical_formula_structural  NaFe2O4
_chemical_formula_sum  NaFe2O4
_cell_volume  74.71244749587795
_cell_formula_units_Z  1
loop_
  _symmetry_equiv_pos_site_id
 _symmetry_equiv_pos_as_xyz
 1  'x, y, z'
loop_
 _atom_site_type_symbol
 _atom_site_label
 _atom_site_symmetry_multiplicity
 _atom_site_fract_x
 _atom_site_fract_y
 _atom_site_fract_z
 _atom_site_fract_occupancy
 Fe  Fe1  1  0.50000  0.50000  0.00000  1
 Fe  Fe2  1  0.00000  0.00000  0.00000  1
 Na  Na1  1  0.00000  0.50000  0.50000  1
 O  O1  1  0.00005  0.27225  0.81654  1
 O  O2  1  0.50009  0.76983  0.81342  1
 O  O3  1  0.99995  0.72775  0.18346  1
 O  O4  1  0.49991  0.23017  0.18658  1
