CIF file written using JARVIS-Tools package.
data_LiVSiO5
_symmetry_space_group_name_H-M  'Cmme'
_cell_length_a       6.31286
_cell_length_b       6.31286
_cell_length_c       4.50928
_cell_angle_alpha    90
_cell_angle_beta     90
_cell_angle_gamma    89.7715

_symmetry_Int_Tables_number  67
_chemical_formula_structural  LiVSiO5
_chemical_formula_sum  Li2V2Si2O0
_cell_volume  179.7033009544992
_cell_formula_units_Z  2
loop_
  _symmetry_equiv_pos_site_id
 _symmetry_equiv_pos_as_xyz
 1  'x, y, z'
loop_
 _atom_site_type_symbol
 _atom_site_label
 _atom_site_symmetry_multiplicity
 _atom_site_fract_x
 _atom_site_fract_y
 _atom_site_fract_z
 _atom_site_fract_occupancy
 Li  Li1  1  -0.00000  0.50000  0.50000  1
 Li  Li2  1  0.50000  0.00000  0.50000  1
 O  O1  1  0.03922  0.74449  0.78567  1
 O  O2  1  0.25000  0.25000  0.74645  1
 O  O3  1  0.24449  0.53922  0.21433  1
 O  O4  1  0.25551  0.96078  0.21433  1
 O  O5  1  0.46078  0.75551  0.78567  1
 O  O6  1  0.53922  0.24449  0.21433  1
 O  O7  1  0.74449  0.03922  0.78567  1
 O  O8  1  0.75551  0.46078  0.78567  1
 O  O9  1  0.75000  0.75000  0.25355  1
 O  O10  1  0.96078  0.25551  0.21433  1
 Si  Si1  1  0.25000  0.75000  0.00000  1
 Si  Si2  1  0.75000  0.25000  0.00000  1
 V  V1  1  0.25000  0.25000  0.10722  1
 V  V2  1  0.75000  0.75000  0.89278  1
