CIF file written using JARVIS-Tools package.
data_MgCo4S8
_symmetry_space_group_name_H-M  'R-3m'
_cell_length_a       6.88817
_cell_length_b       6.88818
_cell_length_c       6.88817
_cell_angle_alpha    58.0159
_cell_angle_beta     58.0158
_cell_angle_gamma    58.0159

_symmetry_Int_Tables_number  166
_chemical_formula_structural  MgCo4S8
_chemical_formula_sum  MgCo4S8
_cell_volume  220.58127030744393
_cell_formula_units_Z  1
loop_
  _symmetry_equiv_pos_site_id
 _symmetry_equiv_pos_as_xyz
 1  'x, y, z'
loop_
 _atom_site_type_symbol
 _atom_site_label
 _atom_site_symmetry_multiplicity
 _atom_site_fract_x
 _atom_site_fract_y
 _atom_site_fract_z
 _atom_site_fract_occupancy
 Co  Co1  1  0.50000  1.00000  0.50000  1
 Co  Co2  1  1.00000  0.50000  0.50000  1
 Co  Co3  1  0.50000  0.50000  -0.00000  1
 Co  Co4  1  0.00000  0.00000  0.00000  1
 Mg  Mg1  1  0.50000  0.50000  0.50000  1
 S  S1  1  0.76357  0.26514  0.76357  1
 S  S2  1  0.23643  0.23643  0.73486  1
 S  S3  1  0.23643  0.73486  0.23643  1
 S  S4  1  0.73486  0.23643  0.23643  1
 S  S5  1  0.26301  0.26301  0.26301  1
 S  S6  1  0.73699  0.73699  0.73699  1
 S  S7  1  0.26514  0.76357  0.76357  1
 S  S8  1  0.76357  0.76357  0.26514  1
