CIF file written using JARVIS-Tools package.
data_Sm2Si3Ni
_symmetry_space_group_name_H-M  'P-6m2'
_cell_length_a       4.03989
_cell_length_b       4.03989
_cell_length_c       8.24267
_cell_angle_alpha    90
_cell_angle_beta     90
_cell_angle_gamma    120

_symmetry_Int_Tables_number  187
_chemical_formula_structural  Sm2Si3Ni
_chemical_formula_sum  Sm2Si3Ni
_cell_volume  116.50333468742318
_cell_formula_units_Z  1
loop_
  _symmetry_equiv_pos_site_id
 _symmetry_equiv_pos_as_xyz
 1  'x, y, z'
loop_
 _atom_site_type_symbol
 _atom_site_label
 _atom_site_symmetry_multiplicity
 _atom_site_fract_x
 _atom_site_fract_y
 _atom_site_fract_z
 _atom_site_fract_occupancy
 Ni  Ni1  1  0.66667  0.33333  0.00000  1
 Si  Si1  1  0.66667  0.33333  0.50000  1
 Si  Si2  1  0.00000  0.00000  0.00000  1
 Si  Si3  1  0.00000  0.00000  0.50000  1
 Sm  Sm1  1  0.33333  0.66667  0.24308  1
 Sm  Sm2  1  0.33333  0.66667  0.75692  1
