CIF file written using JARVIS-Tools package.
data_LiCrCo2O6
_symmetry_space_group_name_H-M  'C2/m'
_cell_length_a       6.22705
_cell_length_b       6.22706
_cell_length_c       5.82331
_cell_angle_alpha    76.2878
_cell_angle_beta     76.2878
_cell_angle_gamma    26.4894

_symmetry_Int_Tables_number  12
_chemical_formula_structural  LiCrCo2O6
_chemical_formula_sum  LiCrCo2O6
_cell_volume  97.68437427297272
_cell_formula_units_Z  1
loop_
  _symmetry_equiv_pos_site_id
 _symmetry_equiv_pos_as_xyz
 1  'x, y, z'
loop_
 _atom_site_type_symbol
 _atom_site_label
 _atom_site_symmetry_multiplicity
 _atom_site_fract_x
 _atom_site_fract_y
 _atom_site_fract_z
 _atom_site_fract_occupancy
 Co  Co1  1  0.32895  0.32895  0.82623  1
 Co  Co2  1  0.67105  0.67105  0.17377  1
 Cr  Cr1  1  0.00000  0.00000  0.50000  1
 Li  Li1  1  0.00000  0.00000  0.00000  1
 O  O1  1  0.16063  0.16063  0.38929  1
 O  O2  1  0.49299  0.49299  0.73018  1
 O  O3  1  0.50701  0.50701  0.26982  1
 O  O4  1  0.82817  0.82817  0.04341  1
 O  O5  1  0.83937  0.83937  0.61071  1
 O  O6  1  0.17183  0.17183  0.95659  1
