CIF file written using JARVIS-Tools package.
data_LaAlZn
_symmetry_space_group_name_H-M  'C2/m'
_cell_length_a       5.86888
_cell_length_b       5.86888
_cell_length_c       7.69802
_cell_angle_alpha    50.6059
_cell_angle_beta     50.6058
_cell_angle_gamma    46.7398

_symmetry_Int_Tables_number  12
_chemical_formula_structural  LaAlZn
_chemical_formula_sum  La2Al2Zn2
_cell_volume  139.51107823774825
_cell_formula_units_Z  2
loop_
  _symmetry_equiv_pos_site_id
 _symmetry_equiv_pos_as_xyz
 1  'x, y, z'
loop_
 _atom_site_type_symbol
 _atom_site_label
 _atom_site_symmetry_multiplicity
 _atom_site_fract_x
 _atom_site_fract_y
 _atom_site_fract_z
 _atom_site_fract_occupancy
 Al  Al1  1  0.83806  0.83806  0.60637  1
 Al  Al2  1  0.16194  0.16194  0.39363  1
 La  La1  1  0.46081  0.46081  0.79407  1
 La  La2  1  0.53919  0.53919  0.20593  1
 Zn  Zn1  1  0.16576  0.16576  0.77627  1
 Zn  Zn2  1  0.83424  0.83424  0.22373  1
