CIF file written using JARVIS-Tools package.
data_Te2Ir
_symmetry_space_group_name_H-M  'C2/m'
_cell_length_a       4.05727
_cell_length_b       5.44579
_cell_length_c       10.3073
_cell_angle_alpha    90.4347
_cell_angle_beta     101.351
_cell_angle_gamma    90.0001

_symmetry_Int_Tables_number  12
_chemical_formula_structural  Te2Ir
_chemical_formula_sum  Te6Ir3
_cell_volume  223.27823988574812
_cell_formula_units_Z  3
loop_
  _symmetry_equiv_pos_site_id
 _symmetry_equiv_pos_as_xyz
 1  'x, y, z'
loop_
 _atom_site_type_symbol
 _atom_site_label
 _atom_site_symmetry_multiplicity
 _atom_site_fract_x
 _atom_site_fract_y
 _atom_site_fract_z
 _atom_site_fract_occupancy
 Ir  Ir1  1  0.00000  0.50000  0.00000  1
 Ir  Ir2  1  0.34026  0.00219  0.68051  1
 Ir  Ir3  1  0.65974  0.99781  0.31949  1
 Te  Te1  1  0.87886  0.28718  0.75771  1
 Te  Te2  1  0.12114  0.71282  0.24229  1
 Te  Te3  1  0.78045  0.75934  0.56091  1
 Te  Te4  1  0.54451  0.22232  0.08902  1
 Te  Te5  1  0.45549  0.77768  0.91098  1
 Te  Te6  1  0.21955  0.24066  0.43909  1
