CIF file written using JARVIS-Tools package.
data_Nb3S4
_symmetry_space_group_name_H-M  'P6_3/m'
_cell_length_a       9.68824
_cell_length_b       9.68824
_cell_length_c       3.40419
_cell_angle_alpha    90
_cell_angle_beta     90
_cell_angle_gamma    120

_symmetry_Int_Tables_number  176
_chemical_formula_structural  Nb3S4
_chemical_formula_sum  Nb6S8
_cell_volume  276.7156835022054
_cell_formula_units_Z  2
loop_
  _symmetry_equiv_pos_site_id
 _symmetry_equiv_pos_as_xyz
 1  'x, y, z'
loop_
 _atom_site_type_symbol
 _atom_site_label
 _atom_site_symmetry_multiplicity
 _atom_site_fract_x
 _atom_site_fract_y
 _atom_site_fract_z
 _atom_site_fract_occupancy
 Nb  Nb1  1  0.11299  0.48536  0.25000  1
 Nb  Nb2  1  0.48536  0.37237  0.75000  1
 Nb  Nb3  1  0.62763  0.11299  0.75000  1
 Nb  Nb4  1  0.37237  0.88701  0.25000  1
 Nb  Nb5  1  0.51464  0.62763  0.25000  1
 Nb  Nb6  1  0.88701  0.51464  0.75000  1
 S  S1  1  0.28691  0.34469  0.25000  1
 S  S2  1  0.34469  0.05778  0.75000  1
 S  S3  1  0.94222  0.28691  0.75000  1
 S  S4  1  0.05778  0.71309  0.25000  1
 S  S5  1  0.65531  0.94222  0.25000  1
 S  S6  1  0.71309  0.65531  0.75000  1
 S  S7  1  0.33333  0.66667  0.75000  1
 S  S8  1  0.66667  0.33333  0.25000  1
