CIF file written using JARVIS-Tools package.
data_Be2Re
_symmetry_space_group_name_H-M  'P6_3/mmc'
_cell_length_a       4.38586
_cell_length_b       4.38586
_cell_length_c       7.14874
_cell_angle_alpha    90
_cell_angle_beta     90
_cell_angle_gamma    120

_symmetry_Int_Tables_number  194
_chemical_formula_structural  Be2Re
_chemical_formula_sum  Be8Re4
_cell_volume  119.08890607558158
_cell_formula_units_Z  4
loop_
  _symmetry_equiv_pos_site_id
 _symmetry_equiv_pos_as_xyz
 1  'x, y, z'
loop_
 _atom_site_type_symbol
 _atom_site_label
 _atom_site_symmetry_multiplicity
 _atom_site_fract_x
 _atom_site_fract_y
 _atom_site_fract_z
 _atom_site_fract_occupancy
 Be  Be1  1  0.00000  0.00000  0.00000  1
 Be  Be2  1  0.00000  0.00000  0.50000  1
 Be  Be3  1  0.83141  0.16859  0.75000  1
 Be  Be4  1  0.16859  0.33718  0.25000  1
 Be  Be5  1  0.66282  0.83141  0.25000  1
 Be  Be6  1  0.33718  0.16859  0.75000  1
 Be  Be7  1  0.83141  0.66282  0.75000  1
 Be  Be8  1  0.16859  0.83141  0.25000  1
 Re  Re1  1  0.33333  0.66667  0.93862  1
 Re  Re2  1  0.66667  0.33333  0.43862  1
 Re  Re3  1  0.66667  0.33333  0.06138  1
 Re  Re4  1  0.33333  0.66667  0.56138  1
