CIF file written using JARVIS-Tools package.
data_AlCr4GaC2
_symmetry_space_group_name_H-M  'P-6m2'
_cell_length_a       2.85793
_cell_length_b       2.85793
_cell_length_c       12.5473
_cell_angle_alpha    90
_cell_angle_beta     90
_cell_angle_gamma    120

_symmetry_Int_Tables_number  187
_chemical_formula_structural  AlCr4GaC2
_chemical_formula_sum  AlCr4GaC2
_cell_volume  88.75319105702859
_cell_formula_units_Z  1
loop_
  _symmetry_equiv_pos_site_id
 _symmetry_equiv_pos_as_xyz
 1  'x, y, z'
loop_
 _atom_site_type_symbol
 _atom_site_label
 _atom_site_symmetry_multiplicity
 _atom_site_fract_x
 _atom_site_fract_y
 _atom_site_fract_z
 _atom_site_fract_occupancy
 Al  Al1  1  0.66667  0.33333  0.00000  1
 C  C1  1  0.00000  0.00000  0.74877  1
 C  C2  1  0.00000  0.00000  0.25123  1
 Cr  Cr1  1  0.66667  0.33333  0.66367  1
 Cr  Cr2  1  0.33333  0.66667  0.83378  1
 Cr  Cr3  1  0.33333  0.66667  0.16622  1
 Cr  Cr4  1  0.66667  0.33333  0.33633  1
 Ga  Ga1  1  0.33333  0.66667  0.50000  1
