CIF file written using JARVIS-Tools package.
data_K2ZnSe2
_symmetry_space_group_name_H-M  'Ibam'
_cell_length_a       8.10122
_cell_length_b       8.10121
_cell_length_c       8.10122
_cell_angle_alpha    132.811
_cell_angle_beta     129.636
_cell_angle_gamma    71.4889

_symmetry_Int_Tables_number  72
_chemical_formula_structural  K2ZnSe2
_chemical_formula_sum  K4Zn2Se4
_cell_volume  293.9735210974958
_cell_formula_units_Z  2
loop_
  _symmetry_equiv_pos_site_id
 _symmetry_equiv_pos_as_xyz
 1  'x, y, z'
loop_
 _atom_site_type_symbol
 _atom_site_label
 _atom_site_symmetry_multiplicity
 _atom_site_fract_x
 _atom_site_fract_y
 _atom_site_fract_z
 _atom_site_fract_occupancy
 K  K1  1  0.81703  0.64364  0.17339  1
 K  K2  1  0.18297  0.35636  0.82661  1
 K  K3  1  0.47026  0.14364  0.32661  1
 K  K4  1  0.52974  0.85636  0.67339  1
 Se  Se1  1  0.69942  0.39380  0.30562  1
 Se  Se2  1  0.30058  0.60620  0.69438  1
 Se  Se3  1  0.08819  0.89380  0.19438  1
 Se  Se4  1  0.91181  0.10620  0.80562  1
 Zn  Zn1  1  0.00000  0.75000  0.75000  1
 Zn  Zn2  1  0.00000  0.25000  0.25000  1
