CIF file written using JARVIS-Tools package.
data_K9U6BiO24
_symmetry_space_group_name_H-M  'Pm-3m'
_cell_length_a       8.7323
_cell_length_b       8.7323
_cell_length_c       8.7323
_cell_angle_alpha    90
_cell_angle_beta     90
_cell_angle_gamma    90

_symmetry_Int_Tables_number  221
_chemical_formula_structural  K9U6BiO24
_chemical_formula_sum  K9U6BiO24
_cell_volume  665.8640253414865
_cell_formula_units_Z  1
loop_
  _symmetry_equiv_pos_site_id
 _symmetry_equiv_pos_as_xyz
 1  'x, y, z'
loop_
 _atom_site_type_symbol
 _atom_site_label
 _atom_site_symmetry_multiplicity
 _atom_site_fract_x
 _atom_site_fract_y
 _atom_site_fract_z
 _atom_site_fract_occupancy
 Bi  Bi1  1  0.50000  0.50000  0.50000  1
 K  K1  1  0.00000  0.00000  0.00000  1
 K  K2  1  0.75374  0.75374  0.75374  1
 K  K3  1  0.24626  0.24626  0.75374  1
 K  K4  1  0.75374  0.24626  0.24626  1
 K  K5  1  0.24626  0.24626  0.24626  1
 K  K6  1  0.24626  0.75374  0.24626  1
 K  K7  1  0.75374  0.24626  0.75374  1
 K  K8  1  0.24626  0.75374  0.75374  1
 K  K9  1  0.75374  0.75374  0.24626  1
 O  O1  1  0.50000  0.00000  0.74559  1
 O  O2  1  0.50000  0.00000  0.25441  1
 O  O3  1  0.74559  0.00000  0.50000  1
 O  O4  1  0.50000  0.50000  0.76886  1
 O  O5  1  0.25441  0.00000  0.50000  1
 O  O6  1  0.00000  0.28307  0.00000  1
 O  O7  1  0.00000  0.71693  0.00000  1
 O  O8  1  0.50000  0.50000  0.23114  1
 O  O9  1  0.23114  0.50000  0.50000  1
 O  O10  1  0.00000  0.74559  0.50000  1
 O  O11  1  0.50000  0.25441  0.00000  1
 O  O12  1  0.28307  0.00000  0.00000  1
 O  O13  1  0.00000  0.50000  0.25441  1
 O  O14  1  0.50000  0.76886  0.50000  1
 O  O15  1  0.74559  0.50000  0.00000  1
 O  O16  1  0.00000  0.25441  0.50000  1
 O  O17  1  0.76886  0.50000  0.50000  1
 O  O18  1  0.25441  0.50000  0.00000  1
 O  O19  1  0.00000  0.50000  0.74559  1
 O  O20  1  0.00000  0.00000  0.28307  1
 O  O21  1  0.50000  0.74559  0.00000  1
 O  O22  1  0.71693  0.00000  0.00000  1
 O  O23  1  0.50000  0.23114  0.50000  1
 O  O24  1  0.00000  0.00000  0.71693  1
 U  U1  1  0.50000  0.00000  0.00000  1
 U  U2  1  0.00000  0.00000  0.50000  1
 U  U3  1  0.00000  0.50000  0.00000  1
 U  U4  1  0.00000  0.50000  0.50000  1
 U  U5  1  0.50000  0.50000  0.00000  1
 U  U6  1  0.50000  0.00000  0.50000  1
