CIF file written using JARVIS-Tools package.
data_Mn2Sb2PtAu
_symmetry_space_group_name_H-M  'R3m'
_cell_length_a       7.79856
_cell_length_b       7.79856
_cell_length_c       7.79856
_cell_angle_alpha    33.3759
_cell_angle_beta     33.376
_cell_angle_gamma    33.3759

_symmetry_Int_Tables_number  160
_chemical_formula_structural  Mn2Sb2PtAu
_chemical_formula_sum  Mn2Sb2PtAu
_cell_volume  127.81688962579474
_cell_formula_units_Z  1
loop_
  _symmetry_equiv_pos_site_id
 _symmetry_equiv_pos_as_xyz
 1  'x, y, z'
loop_
 _atom_site_type_symbol
 _atom_site_label
 _atom_site_symmetry_multiplicity
 _atom_site_fract_x
 _atom_site_fract_y
 _atom_site_fract_z
 _atom_site_fract_occupancy
 Au  Au1  1  0.12383  0.12383  0.12383  1
 Mn  Mn1  1  0.74713  0.74713  0.74713  1
 Mn  Mn2  1  0.25236  0.25236  0.25236  1
 Pt  Pt1  1  0.62604  0.62604  0.62604  1
 Sb  Sb1  1  0.99712  0.99712  0.99712  1
 Sb  Sb2  1  0.50352  0.50352  0.50352  1
