CIF file written using JARVIS-Tools package.
data_SmPS4
_symmetry_space_group_name_H-M  'I4_1/acd'
_cell_length_a       10.8074
_cell_length_b       10.8074
_cell_length_c       12.3048
_cell_angle_alpha    116.05
_cell_angle_beta     116.05
_cell_angle_gamma    90

_symmetry_Int_Tables_number  142
_chemical_formula_structural  SmPS4
_chemical_formula_sum  Sm8P8S32
_cell_volume  1126.4307738674074
_cell_formula_units_Z  8
loop_
  _symmetry_equiv_pos_site_id
 _symmetry_equiv_pos_as_xyz
 1  'x, y, z'
loop_
 _atom_site_type_symbol
 _atom_site_label
 _atom_site_symmetry_multiplicity
 _atom_site_fract_x
 _atom_site_fract_y
 _atom_site_fract_z
 _atom_site_fract_occupancy
 P  P1  1  0.21246  0.75000  0.50000  1
 P  P2  1  0.28754  0.25000  0.50000  1
 P  P3  1  0.78754  0.25000  0.50000  1
 P  P4  1  0.75000  0.78754  0.00000  1
 P  P5  1  0.25000  0.71246  -0.00000  1
 P  P6  1  0.71246  0.75000  0.50000  1
 P  P7  1  0.25000  0.21246  -0.00000  1
 P  P8  1  0.75000  0.28754  0.00000  1
 S  S1  1  0.60852  0.90794  0.49458  1
 S  S2  1  0.88607  0.08664  0.49458  1
 S  S3  1  0.41336  0.61393  0.00542  1
 S  S4  1  0.59206  0.89148  0.00542  1
 S  S5  1  0.89148  0.41336  0.50542  1
 S  S6  1  0.61393  0.59206  0.50542  1
 S  S7  1  0.34093  0.40701  0.17579  1
 S  S8  1  0.08664  0.60852  0.99458  1
 S  S9  1  0.90701  0.84093  0.67579  1
 S  S10  1  0.33486  0.90701  0.17579  1
 S  S11  1  0.66514  0.09299  0.82421  1
 S  S12  1  0.15907  0.23123  0.82421  1
 S  S13  1  0.23123  0.66514  0.32421  1
 S  S14  1  0.09299  0.15907  0.32421  1
 S  S15  1  0.65907  0.59299  0.82421  1
 S  S16  1  0.73123  0.65907  0.32421  1
 S  S17  1  0.59299  0.16514  0.32421  1
 S  S18  1  0.26877  0.34093  0.67579  1
 S  S19  1  0.84093  0.76877  0.17579  1
 S  S20  1  0.83486  0.26877  0.17579  1
 S  S21  1  0.58664  0.38607  0.99458  1
 S  S22  1  0.90794  0.88607  0.99458  1
 S  S23  1  0.76877  0.33486  0.67579  1
 S  S24  1  0.09206  0.11393  0.00542  1
 S  S25  1  0.39148  0.09206  0.50542  1
 S  S26  1  0.11393  0.91336  0.50542  1
 S  S27  1  0.16514  0.73123  0.82421  1
 S  S28  1  0.40794  0.10852  0.99458  1
 S  S29  1  0.40701  0.83486  0.67579  1
 S  S30  1  0.38607  0.40794  0.49458  1
 S  S31  1  0.91336  0.39148  0.00542  1
 S  S32  1  0.10852  0.58664  0.49458  1
 Sm  Sm1  1  0.37500  0.12500  0.75000  1
 Sm  Sm2  1  0.87500  0.12500  0.75000  1
 Sm  Sm3  1  0.12500  0.87500  0.25000  1
 Sm  Sm4  1  0.62500  0.37500  0.25000  1
 Sm  Sm5  1  0.37500  0.62500  0.75000  1
 Sm  Sm6  1  0.62500  0.87500  0.25000  1
 Sm  Sm7  1  0.87500  0.62500  0.75000  1
 Sm  Sm8  1  0.12500  0.37500  0.25000  1
