CIF file written using JARVIS-Tools package.
data_Yb5Mg
_symmetry_space_group_name_H-M  'Cm'
_cell_length_a       7.06491
_cell_length_b       7.0649
_cell_length_c       8.5488
_cell_angle_alpha    74.7485
_cell_angle_beta     74.7485
_cell_angle_gamma    31.0236

_symmetry_Int_Tables_number  8
_chemical_formula_structural  Yb5Mg
_chemical_formula_sum  Yb5Mg
_cell_volume  211.56085856128766
_cell_formula_units_Z  1
loop_
  _symmetry_equiv_pos_site_id
 _symmetry_equiv_pos_as_xyz
 1  'x, y, z'
loop_
 _atom_site_type_symbol
 _atom_site_label
 _atom_site_symmetry_multiplicity
 _atom_site_fract_x
 _atom_site_fract_y
 _atom_site_fract_z
 _atom_site_fract_occupancy
 Mg  Mg1  1  0.61621  0.61621  0.27022  1
 Yb  Yb1  1  0.00273  0.00273  0.02191  1
 Yb  Yb2  1  0.27984  0.27984  0.94548  1
 Yb  Yb3  1  0.66107  0.66107  0.67175  1
 Yb  Yb4  1  0.95322  0.95322  0.58576  1
 Yb  Yb5  1  0.32026  0.32026  0.33821  1
