CIF file written using JARVIS-Tools package.
data_Li2CrFeO4
_symmetry_space_group_name_H-M  'P2/m'
_cell_length_a       4.92007
_cell_length_b       2.86881
_cell_length_c       5.044
_cell_angle_alpha    90
_cell_angle_beta     109.099
_cell_angle_gamma    90

_symmetry_Int_Tables_number  10
_chemical_formula_structural  Li2CrFeO4
_chemical_formula_sum  Li2CrFeO4
_cell_volume  67.27601991906842
_cell_formula_units_Z  1
loop_
  _symmetry_equiv_pos_site_id
 _symmetry_equiv_pos_as_xyz
 1  'x, y, z'
loop_
 _atom_site_type_symbol
 _atom_site_label
 _atom_site_symmetry_multiplicity
 _atom_site_fract_x
 _atom_site_fract_y
 _atom_site_fract_z
 _atom_site_fract_occupancy
 Cr  Cr1  1  0.00000  0.50000  0.50000  1
 Fe  Fe1  1  0.50000  0.00000  0.50000  1
 Li  Li1  1  0.50000  0.50000  0.00000  1
 Li  Li2  1  0.00000  0.00000  0.00000  1
 O  O1  1  0.24277  0.00000  0.72889  1
 O  O2  1  0.26168  0.50000  0.27310  1
 O  O3  1  0.73832  0.50000  0.72690  1
 O  O4  1  0.75723  0.00000  0.27111  1
