CIF file written using JARVIS-Tools package.
data_Mn2NiN2
_symmetry_space_group_name_H-M  'Cmc2_1'
_cell_length_a       4.46166
_cell_length_b       6.02878
_cell_length_c       5.35558
_cell_angle_alpha    90
_cell_angle_beta     90
_cell_angle_gamma    132.502

_symmetry_Int_Tables_number  36
_chemical_formula_structural  Mn2NiN2
_chemical_formula_sum  Mn4Ni2N4
_cell_volume  106.20538047341392
_cell_formula_units_Z  2
loop_
  _symmetry_equiv_pos_site_id
 _symmetry_equiv_pos_as_xyz
 1  'x, y, z'
loop_
 _atom_site_type_symbol
 _atom_site_label
 _atom_site_symmetry_multiplicity
 _atom_site_fract_x
 _atom_site_fract_y
 _atom_site_fract_z
 _atom_site_fract_occupancy
 Mn  Mn1  1  0.35654  0.02304  0.83160  1
 Mn  Mn2  1  0.64346  0.66650  0.83160  1
 Mn  Mn3  1  0.64346  0.97696  0.33160  1
 Mn  Mn4  1  0.35654  0.33350  0.33160  1
 N  N1  1  0.45098  0.12378  0.16048  1
 N  N2  1  0.54902  0.67280  0.16048  1
 N  N3  1  0.54902  0.87622  0.66048  1
 N  N4  1  0.45098  0.32720  0.66048  1
 Ni  Ni1  1  -0.00000  0.52458  0.60945  1
 Ni  Ni2  1  0.00000  0.47542  0.10945  1
