CIF file written using JARVIS-Tools package.
data_Nb3SnGeMo3
_symmetry_space_group_name_H-M  'R3'
_cell_length_a       5.14338
_cell_length_b       5.14338
_cell_length_c       5.14338
_cell_angle_alpha    89.9459
_cell_angle_beta     89.946
_cell_angle_gamma    89.9459

_symmetry_Int_Tables_number  146
_chemical_formula_structural  Nb3SnGeMo3
_chemical_formula_sum  Nb3SnGeMo3
_cell_volume  136.0644173279613
_cell_formula_units_Z  1
loop_
  _symmetry_equiv_pos_site_id
 _symmetry_equiv_pos_as_xyz
 1  'x, y, z'
loop_
 _atom_site_type_symbol
 _atom_site_label
 _atom_site_symmetry_multiplicity
 _atom_site_fract_x
 _atom_site_fract_y
 _atom_site_fract_z
 _atom_site_fract_occupancy
 Ge  Ge1  1  0.49994  0.49994  0.49994  1
 Mo  Mo1  1  0.74748  0.99872  0.50059  1
 Mo  Mo2  1  0.99872  0.50059  0.74748  1
 Mo  Mo3  1  0.50059  0.74748  0.99872  1
 Nb  Nb1  1  0.25557  0.99830  0.50058  1
 Nb  Nb2  1  0.99830  0.50058  0.25557  1
 Nb  Nb3  1  0.50058  0.25557  0.99830  1
 Sn  Sn1  1  0.99881  0.99881  0.99881  1
