CIF file written using JARVIS-Tools package.
data_RbU2SbS8
_symmetry_space_group_name_H-M  'Cm'
_cell_length_a       6.62983
_cell_length_b       6.62983
_cell_length_c       7.48099
_cell_angle_alpha    98.9365
_cell_angle_beta     98.9365
_cell_angle_gamma    109.307

_symmetry_Int_Tables_number  8
_chemical_formula_structural  RbU2SbS8
_chemical_formula_sum  RbU2SbS8
_cell_volume  298.93428597165075
_cell_formula_units_Z  1
loop_
  _symmetry_equiv_pos_site_id
 _symmetry_equiv_pos_as_xyz
 1  'x, y, z'
loop_
 _atom_site_type_symbol
 _atom_site_label
 _atom_site_symmetry_multiplicity
 _atom_site_fract_x
 _atom_site_fract_y
 _atom_site_fract_z
 _atom_site_fract_occupancy
 Rb  Rb1  1  0.54780  0.54780  0.16023  1
 S  S1  1  0.25826  0.46672  0.47921  1
 S  S2  1  0.72047  0.01232  0.46497  1
 S  S3  1  0.74052  0.22831  0.92862  1
 S  S4  1  0.69695  0.69695  0.78705  1
 S  S5  1  0.01232  0.72047  0.46497  1
 S  S6  1  0.19858  0.19858  0.79160  1
 S  S7  1  0.46672  0.25826  0.47921  1
 S  S8  1  0.22831  0.74052  0.92862  1
 Sb  Sb1  1  0.00291  0.00291  0.00305  1
 U  U1  1  0.41545  0.91499  0.66389  1
 U  U2  1  0.91499  0.41545  0.66389  1
