CIF file written using JARVIS-Tools package.
data_Tl3BO3
_symmetry_space_group_name_H-M  'P6_3/m'
_cell_length_a       9.35217
_cell_length_b       9.35218
_cell_length_c       3.77174
_cell_angle_alpha    90
_cell_angle_beta     90
_cell_angle_gamma    120

_symmetry_Int_Tables_number  176
_chemical_formula_structural  Tl3BO3
_chemical_formula_sum  Tl6B2O6
_cell_volume  285.69179821122515
_cell_formula_units_Z  2
loop_
  _symmetry_equiv_pos_site_id
 _symmetry_equiv_pos_as_xyz
 1  'x, y, z'
loop_
 _atom_site_type_symbol
 _atom_site_label
 _atom_site_symmetry_multiplicity
 _atom_site_fract_x
 _atom_site_fract_y
 _atom_site_fract_z
 _atom_site_fract_occupancy
 B  B1  1  0.66667  0.33333  0.75000  1
 B  B2  1  0.33333  0.66667  0.25000  1
 O  O1  1  0.59278  0.43076  0.75000  1
 O  O2  1  0.16202  0.59278  0.25000  1
 O  O3  1  0.43076  0.83798  0.25000  1
 O  O4  1  0.56924  0.16202  0.75000  1
 O  O5  1  0.40722  0.56924  0.25000  1
 O  O6  1  0.83798  0.40722  0.75000  1
 Tl  Tl1  1  0.05656  0.70263  0.75000  1
 Tl  Tl2  1  0.35393  0.05656  0.25000  1
 Tl  Tl3  1  0.70263  0.64607  0.25000  1
 Tl  Tl4  1  0.29737  0.35393  0.75000  1
 Tl  Tl5  1  0.64607  0.94344  0.75000  1
 Tl  Tl6  1  0.94344  0.29737  0.25000  1
