CIF file written using JARVIS-Tools package.
data_Li3GaGeO5
_symmetry_space_group_name_H-M  'Pna2_1'
_cell_length_a       4.98066
_cell_length_b       5.48002
_cell_length_c       15.8499
_cell_angle_alpha    90
_cell_angle_beta     90
_cell_angle_gamma    90

_symmetry_Int_Tables_number  33
_chemical_formula_structural  Li3GaGeO5
_chemical_formula_sum  Li2Ga4Ge4O20
_cell_volume  432.60874456828054
_cell_formula_units_Z  4
loop_
  _symmetry_equiv_pos_site_id
 _symmetry_equiv_pos_as_xyz
 1  'x, y, z'
loop_
 _atom_site_type_symbol
 _atom_site_label
 _atom_site_symmetry_multiplicity
 _atom_site_fract_x
 _atom_site_fract_y
 _atom_site_fract_z
 _atom_site_fract_occupancy
 Ga  Ga1  1  0.99217  0.16825  0.70055  1
 Ga  Ga2  1  0.99217  0.66825  0.79945  1
 Ga  Ga3  1  0.49217  0.33175  0.20055  1
 Ga  Ga4  1  0.49217  0.83175  0.29945  1
 Ge  Ge1  1  0.49819  0.83989  0.90407  1
 Ge  Ge2  1  0.99819  0.16011  0.09593  1
 Ge  Ge3  1  0.99819  0.66011  0.40407  1
 Ge  Ge4  1  0.49819  0.33989  0.59593  1
 Li  Li1  1  0.99494  0.16057  0.49546  1
 Li  Li2  1  0.99224  0.67549  0.59681  1
 Li  Li3  1  0.49224  0.32451  0.40319  1
 Li  Li4  1  0.49224  0.82451  0.09681  1
 Li  Li5  1  0.49494  0.83943  0.50454  1
 Li  Li6  1  0.49212  0.82902  0.69697  1
 Li  Li7  1  0.99494  0.66057  0.00454  1
 Li  Li8  1  0.49494  0.33943  0.99546  1
 Li  Li9  1  0.99212  0.17098  0.30303  1
 Li  Li10  1  0.99212  0.67098  0.19697  1
 Li  Li11  1  0.49212  0.32902  0.80303  1
 Li  Li12  1  0.99224  0.17549  0.90319  1
 O  O1  1  0.60420  0.67793  0.99296  1
 O  O2  1  0.10420  0.32207  0.00704  1
 O  O3  1  0.63256  0.17746  0.10442  1
 O  O4  1  0.63256  0.67746  0.39558  1
 O  O5  1  0.13256  0.82254  0.89558  1
 O  O6  1  0.59765  0.15624  0.29577  1
 O  O7  1  0.60420  0.17793  0.50704  1
 O  O8  1  0.13256  0.32254  0.60442  1
 O  O9  1  0.10276  0.85553  0.10203  1
 O  O10  1  0.11317  0.31886  0.19197  1
 O  O11  1  0.60276  0.64447  0.60203  1
 O  O12  1  0.10276  0.35553  0.39797  1
 O  O13  1  0.61317  0.68114  0.80803  1
 O  O14  1  0.61317  0.18114  0.69197  1
 O  O15  1  0.11317  0.81886  0.30803  1
 O  O16  1  0.09765  0.34376  0.79577  1
 O  O17  1  0.59765  0.65624  0.20423  1
 O  O18  1  0.10420  0.82207  0.49296  1
 O  O19  1  0.60276  0.14447  0.89797  1
 O  O20  1  0.09765  0.84376  0.70423  1
