CIF file written using JARVIS-Tools package.
data_MgAg2O4
_symmetry_space_group_name_H-M  'I4_1'
_cell_length_a       6.49313
_cell_length_b       6.49268
_cell_length_c       6.49305
_cell_angle_alpha    76.0647
_cell_angle_beta     128.349
_cell_angle_gamma    128.346

_symmetry_Int_Tables_number  80
_chemical_formula_structural  MgAg2O4
_chemical_formula_sum  Mg2Ag4O8
_cell_volume  163.67632847733785
_cell_formula_units_Z  2
loop_
  _symmetry_equiv_pos_site_id
 _symmetry_equiv_pos_as_xyz
 1  'x, y, z'
loop_
 _atom_site_type_symbol
 _atom_site_label
 _atom_site_symmetry_multiplicity
 _atom_site_fract_x
 _atom_site_fract_y
 _atom_site_fract_z
 _atom_site_fract_occupancy
 Ag  Ag1  1  -0.00221  -0.00463  0.49454  1
 Ag  Ag2  1  0.50220  0.49673  0.49757  1
 Ag  Ag3  1  0.50082  0.49756  -0.00463  1
 Ag  Ag4  1  -0.00083  0.49454  0.49673  1
 Mg  Mg1  1  0.24999  0.89951  0.14954  1
 Mg  Mg2  1  0.75002  0.14954  0.89951  1
 O  O1  1  0.11652  0.10192  0.84213  1
 O  O2  1  0.75058  0.14786  0.25857  1
 O  O3  1  0.74937  0.50793  0.89728  1
 O  O4  1  0.61069  0.25858  0.50795  1
 O  O5  1  0.25983  0.48542  0.10195  1
 O  O6  1  0.24023  0.84217  0.72556  1
 O  O7  1  0.38345  0.72557  0.48540  1
 O  O8  1  0.88934  0.89730  0.14790  1
