CIF file written using JARVIS-Tools package.
data_Li2CoO2
_symmetry_space_group_name_H-M  'Immm'
_cell_length_a       4.99574
_cell_length_b       4.99573
_cell_length_c       4.99574
_cell_angle_alpha    147.273
_cell_angle_beta     135.151
_cell_angle_gamma    56.6176

_symmetry_Int_Tables_number  71
_chemical_formula_structural  Li2CoO2
_chemical_formula_sum  Li2CoO2
_cell_volume  47.18805883486019
_cell_formula_units_Z  1
loop_
  _symmetry_equiv_pos_site_id
 _symmetry_equiv_pos_as_xyz
 1  'x, y, z'
loop_
 _atom_site_type_symbol
 _atom_site_label
 _atom_site_symmetry_multiplicity
 _atom_site_fract_x
 _atom_site_fract_y
 _atom_site_fract_z
 _atom_site_fract_occupancy
 Co  Co1  1  0.50000  0.00000  0.50000  1
 Li  Li1  1  0.80483  0.30483  0.50000  1
 Li  Li2  1  0.19517  0.69517  0.50000  1
 O  O1  1  0.35700  0.35700  0.00000  1
 O  O2  1  0.64300  0.64300  -0.00000  1
