CIF file written using JARVIS-Tools package.
data_Ag2BiSbTe2Se2
_symmetry_space_group_name_H-M  'Imm2'
_cell_length_a       7.37367
_cell_length_b       7.37367
_cell_length_c       7.37368
_cell_angle_alpha    132.039
_cell_angle_beta     131.693
_cell_angle_gamma    70.4408

_symmetry_Int_Tables_number  44
_chemical_formula_structural  Ag2BiSbTe2Se2
_chemical_formula_sum  Ag2BiSbTe2Se2
_cell_volume  217.86986111489458
_cell_formula_units_Z  1
loop_
  _symmetry_equiv_pos_site_id
 _symmetry_equiv_pos_as_xyz
 1  'x, y, z'
loop_
 _atom_site_type_symbol
 _atom_site_label
 _atom_site_symmetry_multiplicity
 _atom_site_fract_x
 _atom_site_fract_y
 _atom_site_fract_z
 _atom_site_fract_occupancy
 Ag  Ag1  1  0.99597  0.99597  0.00000  1
 Ag  Ag2  1  0.24599  0.74599  0.50000  1
 Bi  Bi1  1  0.76315  0.26315  0.50000  1
 Sb  Sb1  1  0.51184  0.51184  0.00000  1
 Se  Se1  1  0.74466  0.74466  -0.00000  1
 Se  Se2  1  0.00300  0.50300  0.50000  1
 Te  Te1  1  0.24325  0.24325  0.00000  1
 Te  Te2  1  0.49214  0.99214  0.50000  1
