CIF file written using JARVIS-Tools package.
data_Ta3Ru2
_symmetry_space_group_name_H-M  'P4/mmm'
_cell_length_a       3.22141
_cell_length_b       3.22141
_cell_length_c       15.8023
_cell_angle_alpha    90
_cell_angle_beta     90
_cell_angle_gamma    90

_symmetry_Int_Tables_number  123
_chemical_formula_structural  Ta3Ru2
_chemical_formula_sum  Ta6Ru4
_cell_volume  163.9880122865737
_cell_formula_units_Z  2
loop_
  _symmetry_equiv_pos_site_id
 _symmetry_equiv_pos_as_xyz
 1  'x, y, z'
loop_
 _atom_site_type_symbol
 _atom_site_label
 _atom_site_symmetry_multiplicity
 _atom_site_fract_x
 _atom_site_fract_y
 _atom_site_fract_z
 _atom_site_fract_occupancy
 Ru  Ru1  1  0.50000  0.50000  0.20883  1
 Ru  Ru2  1  0.50000  0.50000  0.40252  1
 Ru  Ru3  1  0.50000  0.50000  0.59748  1
 Ru  Ru4  1  0.50000  0.50000  0.79117  1
 Ta  Ta1  1  0.00000  0.00000  0.89532  1
 Ta  Ta2  1  0.00000  0.00000  0.10468  1
 Ta  Ta3  1  0.00000  0.00000  0.30473  1
 Ta  Ta4  1  0.00000  0.00000  0.50000  1
 Ta  Ta5  1  0.00000  0.00000  0.69527  1
 Ta  Ta6  1  0.50000  0.50000  0.00000  1
