CIF file written using JARVIS-Tools package.
data_CdHgS4
_symmetry_space_group_name_H-M  'I-4'
_cell_length_a       5.97309
_cell_length_b       5.9731
_cell_length_c       5.97309
_cell_angle_alpha    99.2326
_cell_angle_beta     99.2327
_cell_angle_gamma    132.774

_symmetry_Int_Tables_number  82
_chemical_formula_structural  CdHgS4
_chemical_formula_sum  CdHgS4
_cell_volume  143.33069788009468
_cell_formula_units_Z  1
loop_
  _symmetry_equiv_pos_site_id
 _symmetry_equiv_pos_as_xyz
 1  'x, y, z'
loop_
 _atom_site_type_symbol
 _atom_site_label
 _atom_site_symmetry_multiplicity
 _atom_site_fract_x
 _atom_site_fract_y
 _atom_site_fract_z
 _atom_site_fract_occupancy
 Cd  Cd1  1  0.75000  0.25000  0.50000  1
 Hg  Hg1  1  0.00000  0.00000  0.00000  1
 S  S1  1  0.66427  0.62741  0.53363  1
 S  S2  1  0.09379  0.13065  0.46637  1
 S  S3  1  0.86935  0.33573  0.96314  1
 S  S4  1  0.37259  0.90621  0.03686  1
