CIF file written using JARVIS-Tools package.
data_ErGePt
_symmetry_space_group_name_H-M  'Pnma'
_cell_length_a       4.35213
_cell_length_b       6.9518
_cell_length_c       7.60956
_cell_angle_alpha    90
_cell_angle_beta     90
_cell_angle_gamma    90

_symmetry_Int_Tables_number  62
_chemical_formula_structural  ErGePt
_chemical_formula_sum  Er4Ge4Pt4
_cell_volume  230.22832394059358
_cell_formula_units_Z  4
loop_
  _symmetry_equiv_pos_site_id
 _symmetry_equiv_pos_as_xyz
 1  'x, y, z'
loop_
 _atom_site_type_symbol
 _atom_site_label
 _atom_site_symmetry_multiplicity
 _atom_site_fract_x
 _atom_site_fract_y
 _atom_site_fract_z
 _atom_site_fract_occupancy
 Er  Er1  1  0.75000  0.49731  0.79651  1
 Er  Er2  1  0.25000  0.00269  0.29651  1
 Er  Er3  1  0.75000  0.99731  0.70349  1
 Er  Er4  1  0.25000  0.50269  0.20349  1
 Ge  Ge1  1  0.25000  0.69003  0.58954  1
 Ge  Ge2  1  0.25000  0.19003  0.91046  1
 Ge  Ge3  1  0.75000  0.30997  0.41046  1
 Ge  Ge4  1  0.75000  0.80997  0.08954  1
 Pt  Pt1  1  0.25000  0.79181  0.91610  1
 Pt  Pt2  1  0.25000  0.29181  0.58390  1
 Pt  Pt3  1  0.75000  0.70819  0.41610  1
 Pt  Pt4  1  0.75000  0.20819  0.08390  1
