CIF file written using JARVIS-Tools package.
data_Be3Zn4Si3SO12
_symmetry_space_group_name_H-M  'P-43n'
_cell_length_a       8.17818
_cell_length_b       8.17818
_cell_length_c       8.17818
_cell_angle_alpha    90
_cell_angle_beta     90
_cell_angle_gamma    90

_symmetry_Int_Tables_number  218
_chemical_formula_structural  Be3Zn4Si3SO12
_chemical_formula_sum  Be6Zn8Si6S2O24
_cell_volume  546.978565749637
_cell_formula_units_Z  2
loop_
  _symmetry_equiv_pos_site_id
 _symmetry_equiv_pos_as_xyz
 1  'x, y, z'
loop_
 _atom_site_type_symbol
 _atom_site_label
 _atom_site_symmetry_multiplicity
 _atom_site_fract_x
 _atom_site_fract_y
 _atom_site_fract_z
 _atom_site_fract_occupancy
 Be  Be1  1  0.50000  0.75000  0.00000  1
 Be  Be2  1  0.50000  0.25000  0.00000  1
 Be  Be3  1  0.00000  0.50000  0.25000  1
 Be  Be4  1  0.00000  0.50000  0.75000  1
 Be  Be5  1  0.25000  0.00000  0.50000  1
 Be  Be6  1  0.75000  0.00000  0.50000  1
 O  O1  1  0.90603  0.63741  0.63784  1
 O  O2  1  0.59397  0.13784  0.86259  1
 O  O3  1  0.59397  0.86216  0.13741  1
 O  O4  1  0.86259  0.40603  0.86216  1
 O  O5  1  0.63784  0.90603  0.63741  1
 O  O6  1  0.86259  0.59397  0.13784  1
 O  O7  1  0.36259  0.63784  0.09397  1
 O  O8  1  0.40603  0.13784  0.13741  1
 O  O9  1  0.90603  0.36259  0.36216  1
 O  O10  1  0.63741  0.36216  0.09397  1
 O  O11  1  0.13741  0.59397  0.86216  1
 O  O12  1  0.09397  0.36259  0.63784  1
 O  O13  1  0.36216  0.09397  0.63741  1
 O  O14  1  0.36216  0.90603  0.36259  1
 O  O15  1  0.13784  0.13741  0.40603  1
 O  O16  1  0.13784  0.86259  0.59397  1
 O  O17  1  0.09397  0.63741  0.36216  1
 O  O18  1  0.40603  0.86216  0.86259  1
 O  O19  1  0.86216  0.13741  0.59397  1
 O  O20  1  0.63741  0.63784  0.90603  1
 O  O21  1  0.36259  0.36216  0.90603  1
 O  O22  1  0.86216  0.86259  0.40603  1
 O  O23  1  0.63784  0.09397  0.36259  1
 O  O24  1  0.13741  0.40603  0.13784  1
 S  S1  1  0.00000  0.00000  0.00000  1
 S  S2  1  0.50000  0.50000  0.50000  1
 Si  Si1  1  0.75000  0.50000  0.00000  1
 Si  Si2  1  0.00000  0.75000  0.50000  1
 Si  Si3  1  0.00000  0.25000  0.50000  1
 Si  Si4  1  0.50000  0.00000  0.75000  1
 Si  Si5  1  0.50000  0.00000  0.25000  1
 Si  Si6  1  0.25000  0.50000  0.00000  1
 Zn  Zn1  1  0.83459  0.83459  0.16541  1
 Zn  Zn2  1  0.83459  0.16541  0.83459  1
 Zn  Zn3  1  0.16541  0.83459  0.83459  1
 Zn  Zn4  1  0.66541  0.33459  0.33459  1
 Zn  Zn5  1  0.33459  0.33459  0.66541  1
 Zn  Zn6  1  0.33459  0.66541  0.33459  1
 Zn  Zn7  1  0.16541  0.16541  0.16541  1
 Zn  Zn8  1  0.66541  0.66541  0.66541  1
