CIF file written using JARVIS-Tools package.
data_MgNi3
_symmetry_space_group_name_H-M  'I4/mmm'
_cell_length_a       4.40529
_cell_length_b       4.40529
_cell_length_c       4.4053
_cell_angle_alpha    130.892
_cell_angle_beta     130.892
_cell_angle_gamma    71.985

_symmetry_Int_Tables_number  139
_chemical_formula_structural  MgNi3
_chemical_formula_sum  MgNi3
_cell_volume  47.77889996055136
_cell_formula_units_Z  1
loop_
  _symmetry_equiv_pos_site_id
 _symmetry_equiv_pos_as_xyz
 1  'x, y, z'
loop_
 _atom_site_type_symbol
 _atom_site_label
 _atom_site_symmetry_multiplicity
 _atom_site_fract_x
 _atom_site_fract_y
 _atom_site_fract_z
 _atom_site_fract_occupancy
 Mg  Mg1  1  0.00000  0.00000  0.00000  1
 Ni  Ni1  1  0.50000  0.50000  -0.00000  1
 Ni  Ni2  1  0.75000  0.25000  0.50000  1
 Ni  Ni3  1  0.25000  0.75000  0.50000  1
