CIF file written using JARVIS-Tools package.
data_SrBi2Pd2
_symmetry_space_group_name_H-M  'P2_1/m'
_cell_length_a       4.98259
_cell_length_b       4.83435
_cell_length_c       10.8497
_cell_angle_alpha    90
_cell_angle_beta     91.8695
_cell_angle_gamma    90

_symmetry_Int_Tables_number  11
_chemical_formula_structural  SrBi2Pd2
_chemical_formula_sum  Sr2Bi4Pd4
_cell_volume  261.20378132022284
_cell_formula_units_Z  2
loop_
  _symmetry_equiv_pos_site_id
 _symmetry_equiv_pos_as_xyz
 1  'x, y, z'
loop_
 _atom_site_type_symbol
 _atom_site_label
 _atom_site_symmetry_multiplicity
 _atom_site_fract_x
 _atom_site_fract_y
 _atom_site_fract_z
 _atom_site_fract_occupancy
 Bi  Bi1  1  0.79907  0.25000  0.88085  1
 Bi  Bi2  1  0.20093  0.75000  0.11915  1
 Bi  Bi3  1  0.75150  0.75000  0.49605  1
 Bi  Bi4  1  0.24850  0.25000  0.50395  1
 Pd  Pd1  1  0.75380  0.25000  0.63016  1
 Pd  Pd2  1  0.24620  0.75000  0.36984  1
 Pd  Pd3  1  0.31601  0.25000  0.00027  1
 Pd  Pd4  1  0.68399  0.75000  -0.00027  1
 Sr  Sr1  1  0.73504  0.25000  0.23730  1
 Sr  Sr2  1  0.26496  0.75000  0.76270  1
