CIF file written using JARVIS-Tools package.
data_Ti3N4
_symmetry_space_group_name_H-M  'I4/mmm'
_cell_length_a       5.1247
_cell_length_b       5.1247
_cell_length_c       5.1247
_cell_angle_alpha    132.209
_cell_angle_beta     132.209
_cell_angle_gamma    69.8995

_symmetry_Int_Tables_number  139
_chemical_formula_structural  Ti3N4
_chemical_formula_sum  Ti3N4
_cell_volume  72.40365007816155
_cell_formula_units_Z  1
loop_
  _symmetry_equiv_pos_site_id
 _symmetry_equiv_pos_as_xyz
 1  'x, y, z'
loop_
 _atom_site_type_symbol
 _atom_site_label
 _atom_site_symmetry_multiplicity
 _atom_site_fract_x
 _atom_site_fract_y
 _atom_site_fract_z
 _atom_site_fract_occupancy
 N  N1  1  0.00000  0.50000  0.50000  1
 N  N2  1  0.26046  0.26046  0.00000  1
 N  N3  1  0.50000  0.00000  0.50000  1
 N  N4  1  0.73954  0.73954  0.00000  1
 Ti  Ti1  1  0.25000  0.75000  0.50000  1
 Ti  Ti2  1  0.50000  0.50000  -0.00000  1
 Ti  Ti3  1  0.75000  0.25000  0.50000  1
