CIF file written using JARVIS-Tools package.
data_Li2CrNiO4
_symmetry_space_group_name_H-M  'I-4m2'
_cell_length_a       5.03801
_cell_length_b       5.038
_cell_length_c       5.03768
_cell_angle_alpha    133.229
_cell_angle_beta     133.229
_cell_angle_gamma    68.2944

_symmetry_Int_Tables_number  119
_chemical_formula_structural  Li2CrNiO4
_chemical_formula_sum  Li2CrNiO4
_cell_volume  66.68536698590218
_cell_formula_units_Z  1
loop_
  _symmetry_equiv_pos_site_id
 _symmetry_equiv_pos_as_xyz
 1  'x, y, z'
loop_
 _atom_site_type_symbol
 _atom_site_label
 _atom_site_symmetry_multiplicity
 _atom_site_fract_x
 _atom_site_fract_y
 _atom_site_fract_z
 _atom_site_fract_occupancy
 Cr  Cr1  1  0.75000  0.25000  0.50000  1
 Li  Li1  1  0.25002  0.74998  0.50000  1
 Li  Li2  1  0.49997  0.50003  0.00000  1
 Ni  Ni1  1  0.00006  -0.00006  -0.00000  1
 O  O1  1  0.51661  0.01673  0.50017  1
 O  O2  1  0.23278  0.23271  -0.00001  1
 O  O3  1  0.98327  0.48339  0.49983  1
 O  O4  1  0.76729  0.76722  0.00001  1
