CIF file written using JARVIS-Tools package.
data_LiFe3O4
_symmetry_space_group_name_H-M  'Cmmm'
_cell_length_a       2.99889
_cell_length_b       5.09261
_cell_length_c       5.09239
_cell_angle_alpha    72.2058
_cell_angle_beta     89.9872
_cell_angle_gamma    90.0063

_symmetry_Int_Tables_number  65
_chemical_formula_structural  LiFe3O4
_chemical_formula_sum  LiFe3O4
_cell_volume  74.05134484435389
_cell_formula_units_Z  1
loop_
  _symmetry_equiv_pos_site_id
 _symmetry_equiv_pos_as_xyz
 1  'x, y, z'
loop_
 _atom_site_type_symbol
 _atom_site_label
 _atom_site_symmetry_multiplicity
 _atom_site_fract_x
 _atom_site_fract_y
 _atom_site_fract_z
 _atom_site_fract_occupancy
 Fe  Fe1  1  0.01056  0.99943  0.00012  1
 Fe  Fe2  1  0.51059  0.99943  0.50012  1
 Fe  Fe3  1  0.01056  0.49943  0.50012  1
 Li  Li1  1  0.51048  0.49942  0.00013  1
 O  O1  1  0.01054  0.75361  0.74592  1
 O  O2  1  0.51056  0.74398  0.24467  1
 O  O3  1  0.51057  0.25488  0.75558  1
 O  O4  1  0.01062  0.24523  0.25433  1
