CIF file written using JARVIS-Tools package.
data_LaCBr
_symmetry_space_group_name_H-M  'C2/m'
_cell_length_a       4.24883
_cell_length_b       4.24883
_cell_length_c       10.046
_cell_angle_alpha    86.3294
_cell_angle_beta     86.3293
_cell_angle_gamma    57.2857

_symmetry_Int_Tables_number  12
_chemical_formula_structural  LaCBr
_chemical_formula_sum  La2C2Br2
_cell_volume  152.18179232020822
_cell_formula_units_Z  2
loop_
  _symmetry_equiv_pos_site_id
 _symmetry_equiv_pos_as_xyz
 1  'x, y, z'
loop_
 _atom_site_type_symbol
 _atom_site_label
 _atom_site_symmetry_multiplicity
 _atom_site_fract_x
 _atom_site_fract_y
 _atom_site_fract_z
 _atom_site_fract_occupancy
 Br  Br1  1  0.82583  0.82583  0.65273  1
 Br  Br2  1  0.17417  0.17417  0.34727  1
 C  C1  1  0.57243  0.57243  0.03408  1
 C  C2  1  0.42757  0.42757  0.96592  1
 La  La1  1  0.85528  0.85528  0.15479  1
 La  La2  1  0.14472  0.14472  0.84521  1
