CIF file written using JARVIS-Tools package.
data_YbGaCoO4
_symmetry_space_group_name_H-M  'R3m'
_cell_length_a       8.47336
_cell_length_b       8.47336
_cell_length_c       8.47336
_cell_angle_alpha    23.2262
_cell_angle_beta     23.2262
_cell_angle_gamma    23.2262

_symmetry_Int_Tables_number  160
_chemical_formula_structural  YbGaCoO4
_chemical_formula_sum  YbGaCoO4
_cell_volume  83.06015670774909
_cell_formula_units_Z  1
loop_
  _symmetry_equiv_pos_site_id
 _symmetry_equiv_pos_as_xyz
 1  'x, y, z'
loop_
 _atom_site_type_symbol
 _atom_site_label
 _atom_site_symmetry_multiplicity
 _atom_site_fract_x
 _atom_site_fract_y
 _atom_site_fract_z
 _atom_site_fract_occupancy
 Co  Co1  1  0.21379  0.21379  0.21379  1
 Ga  Ga1  1  0.78492  0.78492  0.78492  1
 O  O1  1  0.71194  0.71194  0.71194  1
 O  O2  1  0.28417  0.28417  0.28417  1
 O  O3  1  0.86834  0.86834  0.86834  1
 O  O4  1  0.13355  0.13355  0.13355  1
 Yb  Yb1  1  0.99849  0.99849  0.99849  1
