CIF file written using JARVIS-Tools package.
data_CdSn3
_symmetry_space_group_name_H-M  'I4/mmm'
_cell_length_a       6.02146
_cell_length_b       6.02146
_cell_length_c       6.02146
_cell_angle_alpha    134.701
_cell_angle_beta     134.701
_cell_angle_gamma    65.9948

_symmetry_Int_Tables_number  139
_chemical_formula_structural  CdSn3
_chemical_formula_sum  CdSn3
_cell_volume  108.61647844227596
_cell_formula_units_Z  1
loop_
  _symmetry_equiv_pos_site_id
 _symmetry_equiv_pos_as_xyz
 1  'x, y, z'
loop_
 _atom_site_type_symbol
 _atom_site_label
 _atom_site_symmetry_multiplicity
 _atom_site_fract_x
 _atom_site_fract_y
 _atom_site_fract_z
 _atom_site_fract_occupancy
 Cd  Cd1  1  0.00000  0.00000  0.00000  1
 Sn  Sn1  1  0.75000  0.25000  0.50000  1
 Sn  Sn2  1  0.25000  0.75000  0.50000  1
 Sn  Sn3  1  0.50000  0.50000  0.00000  1
