CIF file written using JARVIS-Tools package.
data_Tl5BrCl4
_symmetry_space_group_name_H-M  'Cmmm'
_cell_length_a       13.9254
_cell_length_b       13.9254
_cell_length_c       3.87312
_cell_angle_alpha    90
_cell_angle_beta     90
_cell_angle_gamma    157.298

_symmetry_Int_Tables_number  65
_chemical_formula_structural  Tl5BrCl4
_chemical_formula_sum  Tl5BrCl4
_cell_volume  289.86089703386807
_cell_formula_units_Z  1
loop_
  _symmetry_equiv_pos_site_id
 _symmetry_equiv_pos_as_xyz
 1  'x, y, z'
loop_
 _atom_site_type_symbol
 _atom_site_label
 _atom_site_symmetry_multiplicity
 _atom_site_fract_x
 _atom_site_fract_y
 _atom_site_fract_z
 _atom_site_fract_occupancy
 Br  Br1  1  0.50000  0.50000  0.50000  1
 Cl  Cl1  1  0.10147  0.89853  0.50000  1
 Cl  Cl2  1  0.70135  0.29865  0.50000  1
 Cl  Cl3  1  0.29865  0.70135  0.50000  1
 Cl  Cl4  1  0.89853  0.10147  0.50000  1
 Tl  Tl1  1  0.79979  0.20021  0.00000  1
 Tl  Tl2  1  0.39641  0.60359  0.00000  1
 Tl  Tl3  1  0.00000  0.00000  0.00000  1
 Tl  Tl4  1  0.60359  0.39641  0.00000  1
 Tl  Tl5  1  0.20021  0.79979  0.00000  1
