CIF file written using JARVIS-Tools package.
data_KBH4
_symmetry_space_group_name_H-M  'F-43m'
_cell_length_a       4.65309
_cell_length_b       4.65309
_cell_length_c       4.65309
_cell_angle_alpha    59.9999
_cell_angle_beta     59.9999
_cell_angle_gamma    60

_symmetry_Int_Tables_number  216
_chemical_formula_structural  KBH4
_chemical_formula_sum  KBH4
_cell_volume  71.23765296200439
_cell_formula_units_Z  1
loop_
  _symmetry_equiv_pos_site_id
 _symmetry_equiv_pos_as_xyz
 1  'x, y, z'
loop_
 _atom_site_type_symbol
 _atom_site_label
 _atom_site_symmetry_multiplicity
 _atom_site_fract_x
 _atom_site_fract_y
 _atom_site_fract_z
 _atom_site_fract_occupancy
 B  B1  1  0.50000  0.50000  0.50000  1
 H  H1  1  0.39236  0.39236  0.82292  1
 H  H2  1  0.39236  0.82292  0.39236  1
 H  H3  1  0.82292  0.39236  0.39236  1
 H  H4  1  0.39236  0.39236  0.39236  1
 K  K1  1  0.00000  0.00000  0.00000  1
