CIF file written using JARVIS-Tools package.
data_YFeCu
_symmetry_space_group_name_H-M  'Imma'
_cell_length_a       5.16018
_cell_length_b       5.16018
_cell_length_c       5.16018
_cell_angle_alpha    123.178
_cell_angle_beta     120.11
_cell_angle_gamma    87.197

_symmetry_Int_Tables_number  74
_chemical_formula_structural  YFeCu
_chemical_formula_sum  Y2Fe2Cu2
_cell_volume  94.53082274976381
_cell_formula_units_Z  2
loop_
  _symmetry_equiv_pos_site_id
 _symmetry_equiv_pos_as_xyz
 1  'x, y, z'
loop_
 _atom_site_type_symbol
 _atom_site_label
 _atom_site_symmetry_multiplicity
 _atom_site_fract_x
 _atom_site_fract_y
 _atom_site_fract_z
 _atom_site_fract_occupancy
 Cu  Cu1  1  0.50000  0.50000  -0.00000  1
 Cu  Cu2  1  -0.00000  0.50000  0.50000  1
 Fe  Fe1  1  -0.00000  0.50000  0.00000  1
 Fe  Fe2  1  -0.00000  0.00000  0.50000  1
 Y  Y1  1  0.36874  0.11874  0.25000  1
 Y  Y2  1  0.63126  0.88126  0.75000  1
