CIF file written using JARVIS-Tools package.
data_Li2U3P2O15
_symmetry_space_group_name_H-M  'I4_1/amd'
_cell_length_a       7.16296
_cell_length_b       7.16296
_cell_length_c       13.6006
_cell_angle_alpha    105.268
_cell_angle_beta     105.268
_cell_angle_gamma    90

_symmetry_Int_Tables_number  141
_chemical_formula_structural  Li2U3P2O15
_chemical_formula_sum  Li4U6P4O30
_cell_volume  647.6260803270009
_cell_formula_units_Z  2
loop_
  _symmetry_equiv_pos_site_id
 _symmetry_equiv_pos_as_xyz
 1  'x, y, z'
loop_
 _atom_site_type_symbol
 _atom_site_label
 _atom_site_symmetry_multiplicity
 _atom_site_fract_x
 _atom_site_fract_y
 _atom_site_fract_z
 _atom_site_fract_occupancy
 Li  Li1  1  0.69164  0.44164  0.88327  1
 Li  Li2  1  0.94164  0.19164  0.38327  1
 Li  Li3  1  0.30836  0.55836  0.11673  1
 Li  Li4  1  0.05836  0.80836  0.61673  1
 O  O1  1  0.80339  0.55339  0.10677  1
 O  O2  1  0.28760  0.78217  0.07521  1
 O  O3  1  0.28217  0.78760  0.57521  1
 O  O4  1  0.71240  0.21783  0.92479  1
 O  O5  1  0.62995  0.04820  0.09640  1
 O  O6  1  0.71240  0.70696  0.92479  1
 O  O7  1  0.71783  0.21240  0.42479  1
 O  O8  1  0.45180  0.53355  0.40360  1
 O  O9  1  0.20374  0.62607  0.25213  1
 O  O10  1  0.54820  0.12995  0.59640  1
 O  O11  1  0.87393  0.29626  0.24787  1
 O  O12  1  0.79626  0.37393  0.74787  1
 O  O13  1  0.20696  0.21240  0.42479  1
 O  O14  1  0.03355  0.95180  0.90360  1
 O  O15  1  0.45161  0.37393  0.74787  1
 O  O16  1  0.37500  0.12500  0.25000  1
 O  O17  1  0.79304  0.78760  0.57521  1
 O  O18  1  0.45180  0.87005  0.40360  1
 O  O19  1  0.12607  0.04839  0.75213  1
 O  O20  1  0.54820  0.46645  0.59640  1
 O  O21  1  0.87393  0.95161  0.24787  1
 O  O22  1  0.96645  0.04820  0.09640  1
 O  O23  1  0.19661  0.44661  0.89323  1
 O  O24  1  0.12607  0.70374  0.75213  1
 O  O25  1  0.28760  0.29304  0.07521  1
 O  O26  1  0.62500  0.87500  0.75000  1
 O  O27  1  0.37005  0.95180  0.90360  1
 O  O28  1  0.05339  0.30339  0.60677  1
 O  O29  1  0.54839  0.62607  0.25213  1
 O  O30  1  0.94661  0.69661  0.39323  1
 P  P1  1  0.41292  0.66292  0.32584  1
 P  P2  1  0.58708  0.33708  0.67416  1
 P  P3  1  0.83708  0.08708  0.17416  1
 P  P4  1  0.16292  0.91292  0.82584  1
 U  U1  1  0.12500  0.37500  0.75000  1
 U  U2  1  0.70903  0.95903  0.91807  1
 U  U3  1  0.87500  0.62500  0.25000  1
 U  U4  1  0.29097  0.04097  0.08193  1
 U  U5  1  0.54097  0.79097  0.58193  1
 U  U6  1  0.45903  0.20903  0.41807  1
