CIF file written using JARVIS-Tools package.
data_MnOF
_symmetry_space_group_name_H-M  'P2_1/m'
_cell_length_a       3.73531
_cell_length_b       5.67304
_cell_length_c       3.22357
_cell_angle_alpha    95.9368
_cell_angle_beta     89.9999
_cell_angle_gamma    90.0006

_symmetry_Int_Tables_number  11
_chemical_formula_structural  MnOF
_chemical_formula_sum  Mn2O2F2
_cell_volume  67.94281331091624
_cell_formula_units_Z  2
loop_
  _symmetry_equiv_pos_site_id
 _symmetry_equiv_pos_as_xyz
 1  'x, y, z'
loop_
 _atom_site_type_symbol
 _atom_site_label
 _atom_site_symmetry_multiplicity
 _atom_site_fract_x
 _atom_site_fract_y
 _atom_site_fract_z
 _atom_site_fract_occupancy
 F  F1  1  0.25000  0.37902  0.22967  1
 F  F2  1  0.75000  0.62098  0.77032  1
 Mn  Mn1  1  0.25000  0.17092  0.72660  1
 Mn  Mn2  1  0.75000  0.82908  0.27339  1
 O  O1  1  0.25000  0.91168  0.26527  1
 O  O2  1  0.75000  0.08831  0.73474  1
