CIF file written using JARVIS-Tools package.
data_SrAlIn
_symmetry_space_group_name_H-M  'C2/m'
_cell_length_a       6.24746
_cell_length_b       6.24747
_cell_length_c       8.00895
_cell_angle_alpha    50.8796
_cell_angle_beta     50.8796
_cell_angle_gamma    46.4765

_symmetry_Int_Tables_number  12
_chemical_formula_structural  SrAlIn
_chemical_formula_sum  Sr2Al2In2
_cell_volume  164.77802381339842
_cell_formula_units_Z  2
loop_
  _symmetry_equiv_pos_site_id
 _symmetry_equiv_pos_as_xyz
 1  'x, y, z'
loop_
 _atom_site_type_symbol
 _atom_site_label
 _atom_site_symmetry_multiplicity
 _atom_site_fract_x
 _atom_site_fract_y
 _atom_site_fract_z
 _atom_site_fract_occupancy
 Al  Al1  1  0.15285  0.15285  0.90383  1
 Al  Al2  1  0.84715  0.84715  0.09617  1
 In  In1  1  0.83023  0.83023  0.73642  1
 In  In2  1  0.16977  0.16977  0.26358  1
 Sr  Sr1  1  0.45296  0.45296  0.29886  1
 Sr  Sr2  1  0.54704  0.54704  0.70114  1
