CIF file written using JARVIS-Tools package.
data_LiAlFeO4
_symmetry_space_group_name_H-M  'P4_322'
_cell_length_a       5.6786
_cell_length_b       5.6786
_cell_length_c       7.93922
_cell_angle_alpha    90
_cell_angle_beta     90
_cell_angle_gamma    90

_symmetry_Int_Tables_number  95
_chemical_formula_structural  LiAlFeO4
_chemical_formula_sum  Li4Al4Fe4O6
_cell_volume  256.011912414237
_cell_formula_units_Z  4
loop_
  _symmetry_equiv_pos_site_id
 _symmetry_equiv_pos_as_xyz
 1  'x, y, z'
loop_
 _atom_site_type_symbol
 _atom_site_label
 _atom_site_symmetry_multiplicity
 _atom_site_fract_x
 _atom_site_fract_y
 _atom_site_fract_z
 _atom_site_fract_occupancy
 Al  Al1  1  0.25389  0.25389  0.62500  1
 Al  Al2  1  0.25389  0.74611  0.87500  1
 Al  Al3  1  0.74611  0.25389  0.37500  1
 Al  Al4  1  0.74611  0.74611  0.12500  1
 Fe  Fe1  1  0.50000  0.76095  0.50000  1
 Fe  Fe2  1  0.23905  0.50000  0.25000  1
 Fe  Fe3  1  0.50000  0.23905  0.00000  1
 Fe  Fe4  1  0.76095  0.50000  0.75000  1
 Li  Li1  1  0.00000  0.23418  0.00000  1
 Li  Li2  1  0.23418  0.00000  0.25000  1
 Li  Li3  1  0.00000  0.76582  0.50000  1
 Li  Li4  1  0.76582  0.00000  0.75000  1
 O  O1  1  0.26612  0.51060  0.48831  1
 O  O2  1  0.01381  0.26806  0.25978  1
 O  O3  1  0.98619  0.26806  0.74022  1
 O  O4  1  0.26806  0.01381  0.99022  1
 O  O5  1  0.26806  0.98619  0.50978  1
 O  O6  1  0.26612  0.48940  0.01169  1
 O  O7  1  0.01381  0.73194  0.24022  1
 O  O8  1  0.73194  0.01381  0.00978  1
 O  O9  1  0.51060  0.26612  0.76169  1
 O  O10  1  0.51060  0.73388  0.73831  1
 O  O11  1  0.73388  0.51060  0.51169  1
 O  O12  1  0.73388  0.48940  0.98831  1
 O  O13  1  0.48940  0.26612  0.23831  1
 O  O14  1  0.73194  0.98619  0.49022  1
 O  O15  1  0.48940  0.73388  0.26169  1
 O  O16  1  0.98619  0.73194  0.75978  1
