CIF file written using JARVIS-Tools package.
data_MnCuO2
_symmetry_space_group_name_H-M  'C2/m'
_cell_length_a       2.91391
_cell_length_b       3.15338
_cell_length_c       5.92135
_cell_angle_alpha    102.401
_cell_angle_beta     90
_cell_angle_gamma    117.518

_symmetry_Int_Tables_number  12
_chemical_formula_structural  MnCuO2
_chemical_formula_sum  MnCuO2
_cell_volume  46.817707733066484
_cell_formula_units_Z  1
loop_
  _symmetry_equiv_pos_site_id
 _symmetry_equiv_pos_as_xyz
 1  'x, y, z'
loop_
 _atom_site_type_symbol
 _atom_site_label
 _atom_site_symmetry_multiplicity
 _atom_site_fract_x
 _atom_site_fract_y
 _atom_site_fract_z
 _atom_site_fract_occupancy
 Cu  Cu1  1  0.50000  0.00000  0.50000  1
 Mn  Mn1  1  0.00000  0.00000  0.00000  1
 O  O1  1  0.59475  0.18950  0.82041  1
 O  O2  1  0.40525  0.81050  0.17959  1
