CIF file written using JARVIS-Tools package.
data_MnH4Cl2O2
_symmetry_space_group_name_H-M  'C2/m'
_cell_length_a       5.63749
_cell_length_b       5.63748
_cell_length_c       3.67287
_cell_angle_alpha    84.8421
_cell_angle_beta     84.842
_cell_angle_gamma    99.6464

_symmetry_Int_Tables_number  12
_chemical_formula_structural  MnH4Cl2O2
_chemical_formula_sum  MnH4Cl2O2
_cell_volume  113.95490282838112
_cell_formula_units_Z  1
loop_
  _symmetry_equiv_pos_site_id
 _symmetry_equiv_pos_as_xyz
 1  'x, y, z'
loop_
 _atom_site_type_symbol
 _atom_site_label
 _atom_site_symmetry_multiplicity
 _atom_site_fract_x
 _atom_site_fract_y
 _atom_site_fract_z
 _atom_site_fract_occupancy
 Cl  Cl1  1  0.75312  0.75312  0.55344  1
 Cl  Cl2  1  0.24688  0.24688  0.44656  1
 H  H1  1  0.60212  0.22920  0.16278  1
 H  H2  1  0.77080  0.39788  0.83722  1
 H  H3  1  0.39788  0.77080  0.83722  1
 H  H4  1  0.22920  0.60212  0.16278  1
 Mn  Mn1  1  0.00000  0.00000  0.00000  1
 O  O1  1  0.75433  0.24567  0.00000  1
 O  O2  1  0.24567  0.75433  0.00000  1
