CIF file written using JARVIS-Tools package.
data_LaCI
_symmetry_space_group_name_H-M  'C2/m'
_cell_length_a       4.34525
_cell_length_b       4.34524
_cell_length_c       10.828
_cell_angle_alpha    86.9857
_cell_angle_beta     86.9856
_cell_angle_gamma    57.0824

_symmetry_Int_Tables_number  12
_chemical_formula_structural  LaCI
_chemical_formula_sum  La2C2I2
_cell_volume  171.31365030803323
_cell_formula_units_Z  2
loop_
  _symmetry_equiv_pos_site_id
 _symmetry_equiv_pos_as_xyz
 1  'x, y, z'
loop_
 _atom_site_type_symbol
 _atom_site_label
 _atom_site_symmetry_multiplicity
 _atom_site_fract_x
 _atom_site_fract_y
 _atom_site_fract_z
 _atom_site_fract_occupancy
 C  C1  1  0.57368  0.57368  0.02871  1
 C  C2  1  0.42632  0.42632  0.97129  1
 I  I1  1  0.82658  0.82658  0.65872  1
 I  I2  1  0.17342  0.17342  0.34128  1
 La  La1  1  0.85536  0.85536  0.13922  1
 La  La2  1  0.14464  0.14464  0.86078  1
