CIF file written using JARVIS-Tools package.
data_NaLi5N2
_symmetry_space_group_name_H-M  'Pm'
_cell_length_a       3.71026
_cell_length_b       3.81215
_cell_length_c       6.55783
_cell_angle_alpha    86.9972
_cell_angle_beta     90
_cell_angle_gamma    90

_symmetry_Int_Tables_number  6
_chemical_formula_structural  NaLi5N2
_chemical_formula_sum  NaLi5N2
_cell_volume  92.62698861759245
_cell_formula_units_Z  1
loop_
  _symmetry_equiv_pos_site_id
 _symmetry_equiv_pos_as_xyz
 1  'x, y, z'
loop_
 _atom_site_type_symbol
 _atom_site_label
 _atom_site_symmetry_multiplicity
 _atom_site_fract_x
 _atom_site_fract_y
 _atom_site_fract_z
 _atom_site_fract_occupancy
 Li  Li1  1  0.00000  0.95179  0.64459  1
 Li  Li2  1  0.00000  0.58646  0.01319  1
 Li  Li3  1  0.50000  0.02476  0.25329  1
 Li  Li4  1  0.50000  0.49979  0.54701  1
 Li  Li5  1  0.00000  0.49601  0.35259  1
 N  N1  1  0.50000  0.53535  0.20791  1
 N  N2  1  0.00000  0.44950  0.67553  1
 Na  Na1  1  0.50000  0.21233  0.88790  1
