CIF file written using JARVIS-Tools package.
data_ReAg3
_symmetry_space_group_name_H-M  'P6_3/mmc'
_cell_length_a       5.80991
_cell_length_b       5.80991
_cell_length_c       4.59393
_cell_angle_alpha    90
_cell_angle_beta     90
_cell_angle_gamma    120

_symmetry_Int_Tables_number  194
_chemical_formula_structural  ReAg3
_chemical_formula_sum  Re2Ag6
_cell_volume  134.2928932959199
_cell_formula_units_Z  2
loop_
  _symmetry_equiv_pos_site_id
 _symmetry_equiv_pos_as_xyz
 1  'x, y, z'
loop_
 _atom_site_type_symbol
 _atom_site_label
 _atom_site_symmetry_multiplicity
 _atom_site_fract_x
 _atom_site_fract_y
 _atom_site_fract_z
 _atom_site_fract_occupancy
 Ag  Ag1  1  0.83039  0.16961  0.25000  1
 Ag  Ag2  1  0.83039  0.66078  0.25000  1
 Ag  Ag3  1  0.33922  0.16961  0.25000  1
 Ag  Ag4  1  0.16961  0.83039  0.75000  1
 Ag  Ag5  1  0.16961  0.33922  0.75000  1
 Ag  Ag6  1  0.66078  0.83039  0.75000  1
 Re  Re1  1  0.66667  0.33333  0.75000  1
 Re  Re2  1  0.33333  0.66667  0.25000  1
