CIF file written using JARVIS-Tools package.
data_Na2PdO6
_symmetry_space_group_name_H-M  'C2/m'
_cell_length_a       6.11793
_cell_length_b       6.11793
_cell_length_c       3.92519
_cell_angle_alpha    71.7667
_cell_angle_beta     71.7667
_cell_angle_gamma    117.09

_symmetry_Int_Tables_number  12
_chemical_formula_structural  Na2PdO6
_chemical_formula_sum  Na2PdO6
_cell_volume  104.67883264595359
_cell_formula_units_Z  1
loop_
  _symmetry_equiv_pos_site_id
 _symmetry_equiv_pos_as_xyz
 1  'x, y, z'
loop_
 _atom_site_type_symbol
 _atom_site_label
 _atom_site_symmetry_multiplicity
 _atom_site_fract_x
 _atom_site_fract_y
 _atom_site_fract_z
 _atom_site_fract_occupancy
 Na  Na1  1  0.66986  0.33014  0.50000  1
 Na  Na2  1  0.33014  0.66986  0.50000  1
 O  O1  1  0.78272  0.06801  0.22502  1
 O  O2  1  0.06801  0.78272  0.22502  1
 O  O3  1  0.40022  0.40022  -0.03562  1
 O  O4  1  0.21728  0.93199  0.77498  1
 O  O5  1  0.93199  0.21728  0.77498  1
 O  O6  1  0.59978  0.59978  0.03562  1
 Pd  Pd1  1  0.00000  0.00000  0.50000  1
