CIF file written using JARVIS-Tools package.
data_VMoAs2
_symmetry_space_group_name_H-M  'Pmc2_1'
_cell_length_a       3.39599
_cell_length_b       5.98101
_cell_length_c       6.33161
_cell_angle_alpha    90
_cell_angle_beta     90
_cell_angle_gamma    90

_symmetry_Int_Tables_number  26
_chemical_formula_structural  VMoAs2
_chemical_formula_sum  V2Mo2As4
_cell_volume  128.60431494753797
_cell_formula_units_Z  2
loop_
  _symmetry_equiv_pos_site_id
 _symmetry_equiv_pos_as_xyz
 1  'x, y, z'
loop_
 _atom_site_type_symbol
 _atom_site_label
 _atom_site_symmetry_multiplicity
 _atom_site_fract_x
 _atom_site_fract_y
 _atom_site_fract_z
 _atom_site_fract_occupancy
 As  As1  1  0.50000  0.30650  0.66894  1
 As  As2  1  0.50000  0.80650  0.33106  1
 As  As3  1  0.00000  0.69266  0.81446  1
 As  As4  1  0.00000  0.19266  0.18554  1
 Mo  Mo1  1  0.50000  0.49055  0.06667  1
 Mo  Mo2  1  0.50000  0.99055  0.93333  1
 V  V1  1  0.00000  0.51030  0.43186  1
 V  V2  1  0.00000  0.01030  0.56814  1
