CIF file written using JARVIS-Tools package.
data_Mo2Rh
_symmetry_space_group_name_H-M  'I4/mmm'
_cell_length_a       6.46935
_cell_length_b       6.46927
_cell_length_c       2.71542
_cell_angle_alpha    77.8868
_cell_angle_beta     77.8837
_cell_angle_gamma    24.2294

_symmetry_Int_Tables_number  139
_chemical_formula_structural  Mo2Rh
_chemical_formula_sum  Mo2Rh
_cell_volume  45.55218141300791
_cell_formula_units_Z  1
loop_
  _symmetry_equiv_pos_site_id
 _symmetry_equiv_pos_as_xyz
 1  'x, y, z'
loop_
 _atom_site_type_symbol
 _atom_site_label
 _atom_site_symmetry_multiplicity
 _atom_site_fract_x
 _atom_site_fract_y
 _atom_site_fract_z
 _atom_site_fract_occupancy
 Mo  Mo1  1  0.34091  0.34091  0.65909  1
 Mo  Mo2  1  0.65909  0.65909  0.34091  1
 Rh  Rh1  1  0.00000  0.00000  0.00000  1
