CIF file written using JARVIS-Tools package.
data_Ti3Rh5
_symmetry_space_group_name_H-M  'Pbam'
_cell_length_a       4.11531
_cell_length_b       5.40628
_cell_length_c       10.503
_cell_angle_alpha    90
_cell_angle_beta     90
_cell_angle_gamma    90

_symmetry_Int_Tables_number  55
_chemical_formula_structural  Ti3Rh5
_chemical_formula_sum  Ti6Rh0
_cell_volume  233.67708273384247
_cell_formula_units_Z  2
loop_
  _symmetry_equiv_pos_site_id
 _symmetry_equiv_pos_as_xyz
 1  'x, y, z'
loop_
 _atom_site_type_symbol
 _atom_site_label
 _atom_site_symmetry_multiplicity
 _atom_site_fract_x
 _atom_site_fract_y
 _atom_site_fract_z
 _atom_site_fract_occupancy
 Rh  Rh1  1  0.00000  0.00000  0.50000  1
 Rh  Rh2  1  0.00000  0.50000  0.00000  1
 Rh  Rh3  1  0.00000  0.10229  0.23589  1
 Rh  Rh4  1  0.00000  0.89771  0.76411  1
 Rh  Rh5  1  0.00000  0.60229  0.26411  1
 Rh  Rh6  1  0.00000  0.39771  0.73589  1
 Rh  Rh7  1  0.50000  0.31239  0.39316  1
 Rh  Rh8  1  0.50000  0.68761  0.60684  1
 Rh  Rh9  1  0.50000  0.81239  0.10684  1
 Rh  Rh10  1  0.50000  0.18761  0.89316  1
 Ti  Ti1  1  0.00000  0.00000  0.00000  1
 Ti  Ti2  1  0.00000  0.50000  0.50000  1
 Ti  Ti3  1  0.50000  0.33924  0.14401  1
 Ti  Ti4  1  0.50000  0.66076  0.85599  1
 Ti  Ti5  1  0.50000  0.83924  0.35599  1
 Ti  Ti6  1  0.50000  0.16076  0.64401  1
