CIF file written using JARVIS-Tools package.
data_TmRe2SiC
_symmetry_space_group_name_H-M  'Cmcm'
_cell_length_a       5.81226
_cell_length_b       5.81226
_cell_length_c       7.26425
_cell_angle_alpha    90
_cell_angle_beta     90
_cell_angle_gamma    140.694

_symmetry_Int_Tables_number  63
_chemical_formula_structural  TmRe2SiC
_chemical_formula_sum  Tm2Re4Si2C2
_cell_volume  155.45445389128068
_cell_formula_units_Z  2
loop_
  _symmetry_equiv_pos_site_id
 _symmetry_equiv_pos_as_xyz
 1  'x, y, z'
loop_
 _atom_site_type_symbol
 _atom_site_label
 _atom_site_symmetry_multiplicity
 _atom_site_fract_x
 _atom_site_fract_y
 _atom_site_fract_z
 _atom_site_fract_occupancy
 C  C1  1  0.00000  0.00000  0.00000  1
 C  C2  1  0.00000  0.00000  0.50000  1
 Re  Re1  1  0.82724  0.17276  0.06056  1
 Re  Re2  1  0.17276  0.82724  0.93944  1
 Re  Re3  1  0.17276  0.82724  0.56056  1
 Re  Re4  1  0.82724  0.17276  0.43944  1
 Si  Si1  1  0.26476  0.73524  0.25000  1
 Si  Si2  1  0.73524  0.26476  0.75000  1
 Tm  Tm1  1  0.54202  0.45798  0.25000  1
 Tm  Tm2  1  0.45798  0.54202  0.75000  1
