CIF file written using JARVIS-Tools package.
data_Th4AgPd
_symmetry_space_group_name_H-M  'I422'
_cell_length_a       6.04856
_cell_length_b       6.04857
_cell_length_c       6.04857
_cell_angle_alpha    103.779
_cell_angle_beta     103.779
_cell_angle_gamma    121.576

_symmetry_Int_Tables_number  97
_chemical_formula_structural  Th4AgPd
_chemical_formula_sum  Th4AgPd
_cell_volume  164.54814109248542
_cell_formula_units_Z  1
loop_
  _symmetry_equiv_pos_site_id
 _symmetry_equiv_pos_as_xyz
 1  'x, y, z'
loop_
 _atom_site_type_symbol
 _atom_site_label
 _atom_site_symmetry_multiplicity
 _atom_site_fract_x
 _atom_site_fract_y
 _atom_site_fract_z
 _atom_site_fract_occupancy
 Ag  Ag1  1  0.50000  0.50000  0.00000  1
 Pd  Pd1  1  0.00000  0.00000  0.00000  1
 Th  Th1  1  0.40830  0.90830  0.81660  1
 Th  Th2  1  0.09170  0.59170  0.18340  1
 Th  Th3  1  0.59170  0.40830  0.50000  1
 Th  Th4  1  0.90830  0.09170  0.50000  1
