CIF file written using JARVIS-Tools package.
data_Tb3Mg
_symmetry_space_group_name_H-M  'P6_3/mmc'
_cell_length_a       6.97545
_cell_length_b       6.97546
_cell_length_c       5.50403
_cell_angle_alpha    90
_cell_angle_beta     90
_cell_angle_gamma    120

_symmetry_Int_Tables_number  194
_chemical_formula_structural  Tb3Mg
_chemical_formula_sum  Tb6Mg2
_cell_volume  231.92975409069703
_cell_formula_units_Z  2
loop_
  _symmetry_equiv_pos_site_id
 _symmetry_equiv_pos_as_xyz
 1  'x, y, z'
loop_
 _atom_site_type_symbol
 _atom_site_label
 _atom_site_symmetry_multiplicity
 _atom_site_fract_x
 _atom_site_fract_y
 _atom_site_fract_z
 _atom_site_fract_occupancy
 Mg  Mg1  1  0.66667  0.33333  0.25000  1
 Mg  Mg2  1  0.33333  0.66667  0.75000  1
 Tb  Tb1  1  0.17013  0.34027  0.25000  1
 Tb  Tb2  1  0.65973  0.82987  0.25000  1
 Tb  Tb3  1  0.17013  0.82987  0.25000  1
 Tb  Tb4  1  0.82987  0.17013  0.75000  1
 Tb  Tb5  1  0.34027  0.17013  0.75000  1
 Tb  Tb6  1  0.82987  0.65973  0.75000  1
