CIF file written using JARVIS-Tools package.
data_Ti3CoS6
_symmetry_space_group_name_H-M  'R-3'
_cell_length_a       6.51773
_cell_length_b       6.51773
_cell_length_c       6.51773
_cell_angle_alpha    53.3256
_cell_angle_beta     53.3256
_cell_angle_gamma    53.3255

_symmetry_Int_Tables_number  148
_chemical_formula_structural  Ti3CoS6
_chemical_formula_sum  Ti3CoS6
_cell_volume  165.18684256887184
_cell_formula_units_Z  1
loop_
  _symmetry_equiv_pos_site_id
 _symmetry_equiv_pos_as_xyz
 1  'x, y, z'
loop_
 _atom_site_type_symbol
 _atom_site_label
 _atom_site_symmetry_multiplicity
 _atom_site_fract_x
 _atom_site_fract_y
 _atom_site_fract_z
 _atom_site_fract_occupancy
 Co  Co1  1  0.00000  0.00000  0.00000  1
 S  S1  1  0.59331  0.25123  0.91803  1
 S  S2  1  0.91803  0.59331  0.25123  1
 S  S3  1  0.25123  0.91803  0.59331  1
 S  S4  1  0.74877  0.08197  0.40669  1
 S  S5  1  0.08197  0.40669  0.74877  1
 S  S6  1  0.40669  0.74877  0.08197  1
 Ti  Ti1  1  0.50000  0.50000  0.50000  1
 Ti  Ti2  1  0.17045  0.17045  0.17045  1
 Ti  Ti3  1  0.82955  0.82955  0.82955  1
