CIF file written using JARVIS-Tools package.
data_FeSnN
_symmetry_space_group_name_H-M  'P6_3mc'
_cell_length_a       3.00209
_cell_length_b       3.00181
_cell_length_c       12.0663
_cell_angle_alpha    90
_cell_angle_beta     90
_cell_angle_gamma    120.003

_symmetry_Int_Tables_number  186
_chemical_formula_structural  FeSnN
_chemical_formula_sum  Fe2Sn2N2
_cell_volume  94.16716748512263
_cell_formula_units_Z  2
loop_
  _symmetry_equiv_pos_site_id
 _symmetry_equiv_pos_as_xyz
 1  'x, y, z'
loop_
 _atom_site_type_symbol
 _atom_site_label
 _atom_site_symmetry_multiplicity
 _atom_site_fract_x
 _atom_site_fract_y
 _atom_site_fract_z
 _atom_site_fract_occupancy
 Fe  Fe1  1  0.66717  0.33433  0.72768  1
 Fe  Fe2  1  0.33283  0.66567  0.22768  1
 N  N1  1  0.33381  0.66763  0.68744  1
 N  N2  1  0.66619  0.33237  0.18744  1
 Sn  Sn1  1  0.00000  0.00001  0.42952  1
 Sn  Sn2  1  -0.00000  -0.00001  0.92952  1
