CIF file written using JARVIS-Tools package.
data_Nd2Ta2Cl2O7
_symmetry_space_group_name_H-M  'C2/m'
_cell_length_a       3.94581
_cell_length_b       6.95539
_cell_length_c       7.97117
_cell_angle_alpha    113.008
_cell_angle_beta     104.331
_cell_angle_gamma    89.9993

_symmetry_Int_Tables_number  12
_chemical_formula_structural  Nd2Ta2Cl2O7
_chemical_formula_sum  Nd2Ta2Cl2O7
_cell_volume  193.9461950291326
_cell_formula_units_Z  1
loop_
  _symmetry_equiv_pos_site_id
 _symmetry_equiv_pos_as_xyz
 1  'x, y, z'
loop_
 _atom_site_type_symbol
 _atom_site_label
 _atom_site_symmetry_multiplicity
 _atom_site_fract_x
 _atom_site_fract_y
 _atom_site_fract_z
 _atom_site_fract_occupancy
 Cl  Cl1  1  0.67767  0.56591  0.35534  1
 Cl  Cl2  1  0.32233  0.43409  0.64466  1
 Nd  Nd1  1  0.30795  0.83422  0.61590  1
 Nd  Nd2  1  0.69205  0.16578  0.38410  1
 O  O1  1  0.45548  0.16311  0.91096  1
 O  O2  1  0.54452  0.83689  0.08904  1
 O  O3  1  0.91807  0.84678  0.83614  1
 O  O4  1  0.00000  0.50000  0.00000  1
 O  O5  1  0.82499  0.06978  0.64998  1
 O  O6  1  0.08193  0.15322  0.16386  1
 O  O7  1  0.17501  0.93022  0.35002  1
 Ta  Ta1  1  0.96549  0.20185  0.93097  1
 Ta  Ta2  1  0.03451  0.79815  0.06903  1
