CIF file written using JARVIS-Tools package.
data_Ti2O3
_symmetry_space_group_name_H-M  'P2_1/m'
_cell_length_a       2.99665
_cell_length_b       5.09818
_cell_length_c       7.31971
_cell_angle_alpha    78.9469
_cell_angle_beta     90
_cell_angle_gamma    90

_symmetry_Int_Tables_number  11
_chemical_formula_structural  Ti2O3
_chemical_formula_sum  Ti4O6
_cell_volume  109.75199707163864
_cell_formula_units_Z  2
loop_
  _symmetry_equiv_pos_site_id
 _symmetry_equiv_pos_as_xyz
 1  'x, y, z'
loop_
 _atom_site_type_symbol
 _atom_site_label
 _atom_site_symmetry_multiplicity
 _atom_site_fract_x
 _atom_site_fract_y
 _atom_site_fract_z
 _atom_site_fract_occupancy
 O  O1  1  0.25000  0.93761  0.84428  1
 O  O2  1  0.25000  0.78519  0.49834  1
 O  O3  1  0.75000  0.48267  0.83127  1
 O  O4  1  0.25000  0.51733  0.16873  1
 O  O5  1  0.75000  0.21481  0.50166  1
 O  O6  1  0.75000  0.06239  0.15572  1
 Ti  Ti1  1  0.75000  0.83740  0.65521  1
 Ti  Ti2  1  0.75000  0.73535  0.02441  1
 Ti  Ti3  1  0.25000  0.26465  0.97559  1
 Ti  Ti4  1  0.25000  0.16260  0.34479  1
