CIF file written using JARVIS-Tools package.
data_ZnAu4
_symmetry_space_group_name_H-M  'R-3m'
_cell_length_a       11.58
_cell_length_b       11.58
_cell_length_c       11.58
_cell_angle_alpha    14.7039
_cell_angle_beta     14.7038
_cell_angle_gamma    14.7038

_symmetry_Int_Tables_number  166
_chemical_formula_structural  ZnAu4
_chemical_formula_sum  ZnAu4
_cell_volume  87.1154965257086
_cell_formula_units_Z  1
loop_
  _symmetry_equiv_pos_site_id
 _symmetry_equiv_pos_as_xyz
 1  'x, y, z'
loop_
 _atom_site_type_symbol
 _atom_site_label
 _atom_site_symmetry_multiplicity
 _atom_site_fract_x
 _atom_site_fract_y
 _atom_site_fract_z
 _atom_site_fract_occupancy
 Au  Au1  1  0.60546  0.60546  0.60546  1
 Au  Au2  1  0.20151  0.20151  0.20151  1
 Au  Au3  1  0.79849  0.79849  0.79849  1
 Au  Au4  1  0.39454  0.39454  0.39454  1
 Zn  Zn1  1  0.00000  0.00000  0.00000  1
