CIF file written using JARVIS-Tools package.
data_TaOs3
_symmetry_space_group_name_H-M  'P6_3/mmc'
_cell_length_a       5.62094
_cell_length_b       5.62093
_cell_length_c       4.47243
_cell_angle_alpha    90
_cell_angle_beta     90
_cell_angle_gamma    120

_symmetry_Int_Tables_number  194
_chemical_formula_structural  TaOs3
_chemical_formula_sum  Ta2Os6
_cell_volume  122.37458919618973
_cell_formula_units_Z  2
loop_
  _symmetry_equiv_pos_site_id
 _symmetry_equiv_pos_as_xyz
 1  'x, y, z'
loop_
 _atom_site_type_symbol
 _atom_site_label
 _atom_site_symmetry_multiplicity
 _atom_site_fract_x
 _atom_site_fract_y
 _atom_site_fract_z
 _atom_site_fract_occupancy
 Os  Os1  1  0.16569  0.33139  0.25000  1
 Os  Os2  1  0.66861  0.83431  0.25000  1
 Os  Os3  1  0.16569  0.83431  0.25000  1
 Os  Os4  1  0.83431  0.66861  0.75000  1
 Os  Os5  1  0.33139  0.16569  0.75000  1
 Os  Os6  1  0.83431  0.16569  0.75000  1
 Ta  Ta1  1  0.33333  0.66667  0.75000  1
 Ta  Ta2  1  0.66667  0.33333  0.25000  1
