CIF file written using JARVIS-Tools package.
data_Pr2ZnBi4
_symmetry_space_group_name_H-M  'P-4m2'
_cell_length_a       4.61636
_cell_length_b       4.61636
_cell_length_c       10.0028
_cell_angle_alpha    90
_cell_angle_beta     90
_cell_angle_gamma    90

_symmetry_Int_Tables_number  115
_chemical_formula_structural  Pr2ZnBi4
_chemical_formula_sum  Pr2ZnBi4
_cell_volume  213.1662461604002
_cell_formula_units_Z  1
loop_
  _symmetry_equiv_pos_site_id
 _symmetry_equiv_pos_as_xyz
 1  'x, y, z'
loop_
 _atom_site_type_symbol
 _atom_site_label
 _atom_site_symmetry_multiplicity
 _atom_site_fract_x
 _atom_site_fract_y
 _atom_site_fract_z
 _atom_site_fract_occupancy
 Bi  Bi1  1  0.50000  0.50000  0.00000  1
 Bi  Bi2  1  0.00000  0.00000  0.00000  1
 Bi  Bi3  1  0.50000  0.00000  0.34202  1
 Bi  Bi4  1  0.00000  0.50000  0.65798  1
 Pr  Pr1  1  0.50000  0.00000  0.74012  1
 Pr  Pr2  1  0.00000  0.50000  0.25988  1
 Zn  Zn1  1  0.50000  0.50000  0.50000  1
