CIF file written using JARVIS-Tools package.
data_NaInN
_symmetry_space_group_name_H-M  'P6_3mc'
_cell_length_a       3.50844
_cell_length_b       3.50822
_cell_length_c       10.5314
_cell_angle_alpha    90
_cell_angle_beta     90
_cell_angle_gamma    120.002

_symmetry_Int_Tables_number  186
_chemical_formula_structural  NaInN
_chemical_formula_sum  Na2In2N2
_cell_volume  112.25574499953915
_cell_formula_units_Z  2
loop_
  _symmetry_equiv_pos_site_id
 _symmetry_equiv_pos_as_xyz
 1  'x, y, z'
loop_
 _atom_site_type_symbol
 _atom_site_label
 _atom_site_symmetry_multiplicity
 _atom_site_fract_x
 _atom_site_fract_y
 _atom_site_fract_z
 _atom_site_fract_occupancy
 In  In1  1  0.99951  0.99901  0.50867  1
 In  In2  1  0.00049  0.00099  0.00867  1
 N  N1  1  0.33285  0.66570  0.59581  1
 N  N2  1  0.66715  0.33430  0.09581  1
 Na  Na1  1  0.66623  0.33246  0.74017  1
 Na  Na2  1  0.33377  0.66754  0.24017  1
