CIF file written using JARVIS-Tools package.
data_Mg3ZnO4
_symmetry_space_group_name_H-M  'R-3m'
_cell_length_a       9.95215
_cell_length_b       9.95215
_cell_length_c       9.95215
_cell_angle_alpha    17.3733
_cell_angle_beta     17.3733
_cell_angle_gamma    17.3733

_symmetry_Int_Tables_number  166
_chemical_formula_structural  Mg3ZnO4
_chemical_formula_sum  Mg3ZnO4
_cell_volume  76.69478984035031
_cell_formula_units_Z  1
loop_
  _symmetry_equiv_pos_site_id
 _symmetry_equiv_pos_as_xyz
 1  'x, y, z'
loop_
 _atom_site_type_symbol
 _atom_site_label
 _atom_site_symmetry_multiplicity
 _atom_site_fract_x
 _atom_site_fract_y
 _atom_site_fract_z
 _atom_site_fract_occupancy
 Mg  Mg1  1  0.24948  0.24948  0.24948  1
 Mg  Mg2  1  0.50000  0.50000  0.50000  1
 Mg  Mg3  1  0.75052  0.75052  0.75052  1
 O  O1  1  0.12529  0.12529  0.12529  1
 O  O2  1  0.37682  0.37682  0.37682  1
 O  O3  1  0.62318  0.62318  0.62318  1
 O  O4  1  0.87471  0.87471  0.87471  1
 Zn  Zn1  1  0.00000  0.00000  0.00000  1
