CIF file written using JARVIS-Tools package.
data_Mn4CdS5
_symmetry_space_group_name_H-M  'R-3m'
_cell_length_a       15.2026
_cell_length_b       15.2026
_cell_length_c       15.2026
_cell_angle_alpha    13.7531
_cell_angle_beta     13.7531
_cell_angle_gamma    13.7531

_symmetry_Int_Tables_number  166
_chemical_formula_structural  Mn4CdS5
_chemical_formula_sum  Mn4CdS5
_cell_volume  172.80562381553725
_cell_formula_units_Z  1
loop_
  _symmetry_equiv_pos_site_id
 _symmetry_equiv_pos_as_xyz
 1  'x, y, z'
loop_
 _atom_site_type_symbol
 _atom_site_label
 _atom_site_symmetry_multiplicity
 _atom_site_fract_x
 _atom_site_fract_y
 _atom_site_fract_z
 _atom_site_fract_occupancy
 Cd  Cd1  1  0.00000  0.00000  0.00000  1
 Mn  Mn1  1  0.59616  0.59616  0.59616  1
 Mn  Mn2  1  0.19870  0.19870  0.19870  1
 Mn  Mn3  1  0.80130  0.80130  0.80130  1
 Mn  Mn4  1  0.40384  0.40384  0.40384  1
 S  S1  1  0.70539  0.70539  0.70539  1
 S  S2  1  0.50000  0.50000  0.50000  1
 S  S3  1  0.10312  0.10312  0.10312  1
 S  S4  1  0.29461  0.29461  0.29461  1
 S  S5  1  0.89688  0.89688  0.89688  1
