CIF file written using JARVIS-Tools package.
data_LiV2O4
_symmetry_space_group_name_H-M  'P2/m'
_cell_length_a       5.17584
_cell_length_b       10.3413
_cell_length_c       9.92648
_cell_angle_alpha    16.2813
_cell_angle_beta     28.3265
_cell_angle_gamma    32.3327

_symmetry_Int_Tables_number  10
_chemical_formula_structural  LiV2O4
_chemical_formula_sum  LiV2O4
_cell_volume  70.67865963532935
_cell_formula_units_Z  1
loop_
  _symmetry_equiv_pos_site_id
 _symmetry_equiv_pos_as_xyz
 1  'x, y, z'
loop_
 _atom_site_type_symbol
 _atom_site_label
 _atom_site_symmetry_multiplicity
 _atom_site_fract_x
 _atom_site_fract_y
 _atom_site_fract_z
 _atom_site_fract_occupancy
 Li  Li1  1  0.50001  0.50000  0.49999  1
 O  O1  1  0.25302  0.50001  0.26674  1
 O  O2  1  0.74700  0.49999  0.73327  1
 O  O3  1  0.27008  0.00001  0.25358  1
 O  O4  1  0.72989  0.99999  0.74642  1
 V  V1  1  0.00004  0.49999  -0.00001  1
 V  V2  1  0.99996  0.00000  0.00002  1
