CIF file written using JARVIS-Tools package.
data_VGa2FeCo4
_symmetry_space_group_name_H-M  'R-3m'
_cell_length_a       6.99882
_cell_length_b       6.99882
_cell_length_c       6.99882
_cell_angle_alpha    33.6323
_cell_angle_beta     33.6322
_cell_angle_gamma    33.6323

_symmetry_Int_Tables_number  166
_chemical_formula_structural  VGa2FeCo4
_chemical_formula_sum  VGa2FeCo4
_cell_volume  93.68520271158238
_cell_formula_units_Z  1
loop_
  _symmetry_equiv_pos_site_id
 _symmetry_equiv_pos_as_xyz
 1  'x, y, z'
loop_
 _atom_site_type_symbol
 _atom_site_label
 _atom_site_symmetry_multiplicity
 _atom_site_fract_x
 _atom_site_fract_y
 _atom_site_fract_z
 _atom_site_fract_occupancy
 Co  Co1  1  0.62474  0.62474  0.62474  1
 Co  Co2  1  0.12555  0.12555  0.12555  1
 Co  Co3  1  0.87445  0.87445  0.87445  1
 Co  Co4  1  0.37526  0.37526  0.37526  1
 Fe  Fe1  1  0.00000  0.00000  0.00000  1
 Ga  Ga1  1  0.25022  0.25022  0.25022  1
 Ga  Ga2  1  0.74978  0.74978  0.74978  1
 V  V1  1  0.50000  0.50000  0.50000  1
