CIF file written using JARVIS-Tools package.
data_InGaSb2
_symmetry_space_group_name_H-M  'R3m'
_cell_length_a       7.87555
_cell_length_b       7.87555
_cell_length_c       7.87556
_cell_angle_alpha    33.4496
_cell_angle_beta     33.4496
_cell_angle_gamma    33.4497

_symmetry_Int_Tables_number  160
_chemical_formula_structural  InGaSb2
_chemical_formula_sum  InGaSb2
_cell_volume  132.17059462919684
_cell_formula_units_Z  1
loop_
  _symmetry_equiv_pos_site_id
 _symmetry_equiv_pos_as_xyz
 1  'x, y, z'
loop_
 _atom_site_type_symbol
 _atom_site_label
 _atom_site_symmetry_multiplicity
 _atom_site_fract_x
 _atom_site_fract_y
 _atom_site_fract_z
 _atom_site_fract_occupancy
 Ga  Ga1  1  0.99984  0.99984  0.99984  1
 In  In1  1  0.50070  0.50070  0.50070  1
 Sb  Sb1  1  0.12040  0.12040  0.12040  1
 Sb  Sb2  1  0.62906  0.62906  0.62906  1
