CIF file written using JARVIS-Tools package.
data_Sm2Ga3Cu
_symmetry_space_group_name_H-M  'Pmm2'
_cell_length_a       3.7494
_cell_length_b       4.38272
_cell_length_c       7.59616
_cell_angle_alpha    90
_cell_angle_beta     90
_cell_angle_gamma    90

_symmetry_Int_Tables_number  25
_chemical_formula_structural  Sm2Ga3Cu
_chemical_formula_sum  Sm2Ga3Cu
_cell_volume  124.82425075345118
_cell_formula_units_Z  1
loop_
  _symmetry_equiv_pos_site_id
 _symmetry_equiv_pos_as_xyz
 1  'x, y, z'
loop_
 _atom_site_type_symbol
 _atom_site_label
 _atom_site_symmetry_multiplicity
 _atom_site_fract_x
 _atom_site_fract_y
 _atom_site_fract_z
 _atom_site_fract_occupancy
 Cu  Cu1  1  0.50000  0.50000  0.32998  1
 Ga  Ga1  1  0.50000  0.00000  0.83631  1
 Ga  Ga2  1  0.50000  0.00000  0.17521  1
 Ga  Ga3  1  0.50000  0.50000  0.65760  1
 Sm  Sm1  1  0.00000  0.50000  0.00371  1
 Sm  Sm2  1  0.00000  0.00000  0.49719  1
