CIF file written using JARVIS-Tools package.
data_Ce2NiPt
_symmetry_space_group_name_H-M  'Amm2'
_cell_length_a       5.75944
_cell_length_b       5.75944
_cell_length_c       4.30675
_cell_angle_alpha    90
_cell_angle_beta     90
_cell_angle_gamma    141.345

_symmetry_Int_Tables_number  38
_chemical_formula_structural  Ce2NiPt
_chemical_formula_sum  Ce2NiPt
_cell_volume  89.2344755442661
_cell_formula_units_Z  1
loop_
  _symmetry_equiv_pos_site_id
 _symmetry_equiv_pos_as_xyz
 1  'x, y, z'
loop_
 _atom_site_type_symbol
 _atom_site_label
 _atom_site_symmetry_multiplicity
 _atom_site_fract_x
 _atom_site_fract_y
 _atom_site_fract_z
 _atom_site_fract_occupancy
 Ce  Ce1  1  0.13944  0.86056  0.00000  1
 Ce  Ce2  1  0.86549  0.13451  0.50000  1
 Ni  Ni1  1  0.40699  0.59301  0.00000  1
 Pt  Pt1  1  0.58809  0.41191  0.50000  1
