CIF file written using JARVIS-Tools package.
data_Cr3Te2Se2
_symmetry_space_group_name_H-M  'C2/m'
_cell_length_a       7.10575
_cell_length_b       7.10575
_cell_length_c       6.64208
_cell_angle_alpha    64.0729
_cell_angle_beta     64.0729
_cell_angle_gamma    31.7418

_symmetry_Int_Tables_number  12
_chemical_formula_structural  Cr3Te2Se2
_chemical_formula_sum  Cr3Te2Se2
_cell_volume  157.15430889636957
_cell_formula_units_Z  1
loop_
  _symmetry_equiv_pos_site_id
 _symmetry_equiv_pos_as_xyz
 1  'x, y, z'
loop_
 _atom_site_type_symbol
 _atom_site_label
 _atom_site_symmetry_multiplicity
 _atom_site_fract_x
 _atom_site_fract_y
 _atom_site_fract_z
 _atom_site_fract_occupancy
 Cr  Cr1  1  0.00000  0.00000  0.00000  1
 Cr  Cr2  1  0.26143  0.26143  0.77475  1
 Cr  Cr3  1  0.73857  0.73857  0.22525  1
 Se  Se1  1  0.12722  0.12722  0.19235  1
 Se  Se2  1  0.87278  0.87278  0.80765  1
 Te  Te1  1  0.37040  0.37040  0.30147  1
 Te  Te2  1  0.62960  0.62960  0.69853  1
