CIF file written using JARVIS-Tools package.
data_Mn4FeS5
_symmetry_space_group_name_H-M  'C2/m'
_cell_length_a       6.14878
_cell_length_b       6.14878
_cell_length_c       8.69273
_cell_angle_alpha    61.9471
_cell_angle_beta     61.9471
_cell_angle_gamma    33.6052

_symmetry_Int_Tables_number  12
_chemical_formula_structural  Mn4FeS5
_chemical_formula_sum  Mn4FeS5
_cell_volume  158.4350906687379
_cell_formula_units_Z  1
loop_
  _symmetry_equiv_pos_site_id
 _symmetry_equiv_pos_as_xyz
 1  'x, y, z'
loop_
 _atom_site_type_symbol
 _atom_site_label
 _atom_site_symmetry_multiplicity
 _atom_site_fract_x
 _atom_site_fract_y
 _atom_site_fract_z
 _atom_site_fract_occupancy
 Fe  Fe1  1  0.00000  0.00000  0.00000  1
 Mn  Mn1  1  0.59968  0.59968  0.60371  1
 Mn  Mn2  1  0.20200  0.20200  0.19550  1
 Mn  Mn3  1  0.79800  0.79800  0.80450  1
 Mn  Mn4  1  0.40032  0.40032  0.39629  1
 S  S1  1  -0.00000  -0.00000  0.50000  1
 S  S2  1  0.59767  0.59767  0.09878  1
 S  S3  1  0.19962  0.19962  0.70238  1
 S  S4  1  0.80038  0.80038  0.29762  1
 S  S5  1  0.40233  0.40233  0.90122  1
