CIF file written using JARVIS-Tools package.
data_Co2S3
_symmetry_space_group_name_H-M  'R-3c'
_cell_length_a       6.00474
_cell_length_b       6.00474
_cell_length_c       6.00474
_cell_angle_alpha    56.6868
_cell_angle_beta     56.6868
_cell_angle_gamma    56.6868

_symmetry_Int_Tables_number  167
_chemical_formula_structural  Co2S3
_chemical_formula_sum  Co4S6
_cell_volume  141.38378192598353
_cell_formula_units_Z  2
loop_
  _symmetry_equiv_pos_site_id
 _symmetry_equiv_pos_as_xyz
 1  'x, y, z'
loop_
 _atom_site_type_symbol
 _atom_site_label
 _atom_site_symmetry_multiplicity
 _atom_site_fract_x
 _atom_site_fract_y
 _atom_site_fract_z
 _atom_site_fract_occupancy
 Co  Co1  1  0.85040  0.85040  0.85040  1
 Co  Co2  1  0.64960  0.64960  0.64960  1
 Co  Co3  1  0.35040  0.35040  0.35040  1
 Co  Co4  1  0.14960  0.14960  0.14960  1
 S  S1  1  0.55470  0.94530  0.25000  1
 S  S2  1  0.94530  0.25000  0.55470  1
 S  S3  1  0.25000  0.55470  0.94530  1
 S  S4  1  0.75000  0.44530  0.05470  1
 S  S5  1  0.05470  0.75000  0.44530  1
 S  S6  1  0.44530  0.05470  0.75000  1
