CIF file written using JARVIS-Tools package.
data_U2Si3Ge3
_symmetry_space_group_name_H-M  'Pmmm'
_cell_length_a       4.14156
_cell_length_b       4.16468
_cell_length_c       8.24958
_cell_angle_alpha    90
_cell_angle_beta     90
_cell_angle_gamma    90

_symmetry_Int_Tables_number  47
_chemical_formula_structural  U2Si3Ge3
_chemical_formula_sum  U2Si3Ge3
_cell_volume  142.29116511393565
_cell_formula_units_Z  1
loop_
  _symmetry_equiv_pos_site_id
 _symmetry_equiv_pos_as_xyz
 1  'x, y, z'
loop_
 _atom_site_type_symbol
 _atom_site_label
 _atom_site_symmetry_multiplicity
 _atom_site_fract_x
 _atom_site_fract_y
 _atom_site_fract_z
 _atom_site_fract_occupancy
 Ge  Ge1  1  0.50000  0.50000  0.24341  1
 Ge  Ge2  1  0.50000  0.50000  0.75659  1
 Ge  Ge3  1  0.00000  0.50000  0.50000  1
 Si  Si1  1  0.00000  0.50000  0.00000  1
 Si  Si2  1  0.50000  0.00000  0.50000  1
 Si  Si3  1  0.50000  0.00000  0.00000  1
 U  U1  1  0.00000  0.00000  0.24648  1
 U  U2  1  0.00000  0.00000  0.75352  1
