CIF file written using JARVIS-Tools package.
data_LiRhF6
_symmetry_space_group_name_H-M  'R-3'
_cell_length_a       5.34378
_cell_length_b       5.34378
_cell_length_c       5.34377
_cell_angle_alpha    55.1149
_cell_angle_beta     55.1149
_cell_angle_gamma    55.115

_symmetry_Int_Tables_number  148
_chemical_formula_structural  LiRhF6
_chemical_formula_sum  LiRhF6
_cell_volume  95.64337995440664
_cell_formula_units_Z  1
loop_
  _symmetry_equiv_pos_site_id
 _symmetry_equiv_pos_as_xyz
 1  'x, y, z'
loop_
 _atom_site_type_symbol
 _atom_site_label
 _atom_site_symmetry_multiplicity
 _atom_site_fract_x
 _atom_site_fract_y
 _atom_site_fract_z
 _atom_site_fract_occupancy
 F  F1  1  0.61697  0.23997  0.90112  1
 F  F2  1  0.23997  0.90112  0.61697  1
 F  F3  1  0.09888  0.38303  0.76003  1
 F  F4  1  0.90112  0.61697  0.23997  1
 F  F5  1  0.76003  0.09888  0.38303  1
 F  F6  1  0.38303  0.76003  0.09888  1
 Li  Li1  1  0.50000  0.50000  0.50000  1
 Rh  Rh1  1  0.00000  0.00000  0.00000  1
