CIF file written using JARVIS-Tools package.
data_CoC4N6
_symmetry_space_group_name_H-M  'Pnnm'
_cell_length_a       5.76135
_cell_length_b       6.89235
_cell_length_c       7.19851
_cell_angle_alpha    90
_cell_angle_beta     90
_cell_angle_gamma    90

_symmetry_Int_Tables_number  58
_chemical_formula_structural  CoC4N6
_chemical_formula_sum  Co2C8N2
_cell_volume  285.8472002878886
_cell_formula_units_Z  2
loop_
  _symmetry_equiv_pos_site_id
 _symmetry_equiv_pos_as_xyz
 1  'x, y, z'
loop_
 _atom_site_type_symbol
 _atom_site_label
 _atom_site_symmetry_multiplicity
 _atom_site_fract_x
 _atom_site_fract_y
 _atom_site_fract_z
 _atom_site_fract_occupancy
 C  C1  1  0.74600  0.13368  0.65875  1
 C  C2  1  0.24600  0.36632  0.84125  1
 C  C3  1  0.74600  0.13368  0.34125  1
 C  C4  1  0.24600  0.36632  0.15875  1
 C  C5  1  0.75400  0.63368  0.15875  1
 C  C6  1  0.25400  0.86632  0.34125  1
 C  C7  1  0.25400  0.86632  0.65875  1
 C  C8  1  0.75400  0.63368  0.84125  1
 Co  Co1  1  0.50000  0.50000  0.50000  1
 Co  Co2  1  0.00000  0.00000  0.00000  1
 N  N1  1  0.67266  0.19939  0.50000  1
 N  N2  1  0.32734  0.80061  0.50000  1
 N  N3  1  0.80034  0.08565  0.19114  1
 N  N4  1  0.30034  0.41435  0.30886  1
 N  N5  1  0.82734  0.69939  0.00000  1
 N  N6  1  0.80034  0.08565  0.80886  1
 N  N7  1  0.19966  0.91435  0.80886  1
 N  N8  1  0.69966  0.58565  0.69114  1
 N  N9  1  0.30034  0.41435  0.69114  1
 N  N10  1  0.69966  0.58565  0.30886  1
 N  N11  1  0.19966  0.91435  0.19114  1
 N  N12  1  0.17266  0.30061  0.00000  1
