CIF file written using JARVIS-Tools package.
data_Li4AlCr3O8
_symmetry_space_group_name_H-M  'C2/m'
_cell_length_a       5.0422
_cell_length_b       5.81513
_cell_length_c       5.81619
_cell_angle_alpha    120.006
_cell_angle_beta     90
_cell_angle_gamma    73.2408

_symmetry_Int_Tables_number  12
_chemical_formula_structural  Li4AlCr3O8
_chemical_formula_sum  Li4AlCr3O8
_cell_volume  139.25286087818387
_cell_formula_units_Z  1
loop_
  _symmetry_equiv_pos_site_id
 _symmetry_equiv_pos_as_xyz
 1  'x, y, z'
loop_
 _atom_site_type_symbol
 _atom_site_label
 _atom_site_symmetry_multiplicity
 _atom_site_fract_x
 _atom_site_fract_y
 _atom_site_fract_z
 _atom_site_fract_occupancy
 Al  Al1  1  0.50000  0.50000  0.25000  1
 Cr  Cr1  1  0.50000  -0.00000  0.75000  1
 Cr  Cr2  1  0.50000  0.00000  0.25000  1
 Cr  Cr3  1  0.50000  0.50000  0.75000  1
 Li  Li1  1  0.99791  0.99961  0.49980  1
 Li  Li2  1  0.00209  0.00039  0.00020  1
 Li  Li3  1  0.00000  0.50000  0.49841  1
 Li  Li4  1  -0.00000  0.50000  0.00159  1
 O  O1  1  0.27318  0.24217  0.62108  1
 O  O2  1  0.72262  0.26424  0.88985  1
 O  O3  1  0.27858  0.25090  0.12545  1
 O  O4  1  0.72262  0.26424  0.37439  1
 O  O5  1  0.27738  0.73576  0.61015  1
 O  O6  1  0.72682  0.75783  0.87892  1
 O  O7  1  0.27738  0.73576  0.12561  1
 O  O8  1  0.72142  0.74910  0.37455  1
