CIF file written using JARVIS-Tools package.
data_Tb3Pm
_symmetry_space_group_name_H-M  'P6_3/mmc'
_cell_length_a       7.19496
_cell_length_b       7.19496
_cell_length_c       5.69422
_cell_angle_alpha    90
_cell_angle_beta     90
_cell_angle_gamma    120

_symmetry_Int_Tables_number  194
_chemical_formula_structural  Tb3Pm
_chemical_formula_sum  Tb6Pm2
_cell_volume  255.28301498754243
_cell_formula_units_Z  2
loop_
  _symmetry_equiv_pos_site_id
 _symmetry_equiv_pos_as_xyz
 1  'x, y, z'
loop_
 _atom_site_type_symbol
 _atom_site_label
 _atom_site_symmetry_multiplicity
 _atom_site_fract_x
 _atom_site_fract_y
 _atom_site_fract_z
 _atom_site_fract_occupancy
 Pm  Pm1  1  0.66667  0.33333  0.25000  1
 Pm  Pm2  1  0.33333  0.66667  0.75000  1
 Tb  Tb1  1  0.83400  0.16600  0.75000  1
 Tb  Tb2  1  0.33200  0.16600  0.75000  1
 Tb  Tb3  1  0.83400  0.66800  0.75000  1
 Tb  Tb4  1  0.16600  0.83400  0.25000  1
 Tb  Tb5  1  0.66800  0.83400  0.25000  1
 Tb  Tb6  1  0.16600  0.33200  0.25000  1
