CIF file written using JARVIS-Tools package.
data_MgBi
_symmetry_space_group_name_H-M  'Pmmn'
_cell_length_a       3.60829
_cell_length_b       5.05105
_cell_length_c       6.06131
_cell_angle_alpha    90
_cell_angle_beta     90
_cell_angle_gamma    90

_symmetry_Int_Tables_number  59
_chemical_formula_structural  MgBi
_chemical_formula_sum  Mg2Bi2
_cell_volume  110.47148990114907
_cell_formula_units_Z  2
loop_
  _symmetry_equiv_pos_site_id
 _symmetry_equiv_pos_as_xyz
 1  'x, y, z'
loop_
 _atom_site_type_symbol
 _atom_site_label
 _atom_site_symmetry_multiplicity
 _atom_site_fract_x
 _atom_site_fract_y
 _atom_site_fract_z
 _atom_site_fract_occupancy
 Bi  Bi1  1  0.00000  0.69010  0.00000  1
 Bi  Bi2  1  0.50000  0.30990  0.50000  1
 Mg  Mg1  1  0.50000  0.18384  0.00000  1
 Mg  Mg2  1  0.00000  0.81616  0.50000  1
