CIF file written using JARVIS-Tools package.
data_LaAlSi
_symmetry_space_group_name_H-M  'I4_1md'
_cell_length_a       7.94709
_cell_length_b       7.94709
_cell_length_c       7.94709
_cell_angle_alpha    148.353
_cell_angle_beta     148.353
_cell_angle_gamma    45.3643

_symmetry_Int_Tables_number  109
_chemical_formula_structural  LaAlSi
_chemical_formula_sum  La2Al2Si2
_cell_volume  137.72451811044814
_cell_formula_units_Z  2
loop_
  _symmetry_equiv_pos_site_id
 _symmetry_equiv_pos_as_xyz
 1  'x, y, z'
loop_
 _atom_site_type_symbol
 _atom_site_label
 _atom_site_symmetry_multiplicity
 _atom_site_fract_x
 _atom_site_fract_y
 _atom_site_fract_z
 _atom_site_fract_occupancy
 Al  Al1  1  0.45835  0.45835  -0.00000  1
 Al  Al2  1  0.20835  0.70835  0.50000  1
 La  La1  1  0.62513  0.12513  0.50000  1
 La  La2  1  0.87513  0.87513  -0.00000  1
 Si  Si1  1  0.04153  0.54153  0.50000  1
 Si  Si2  1  0.29153  0.29153  -0.00000  1
