CIF file written using JARVIS-Tools package.
data_VFe3Si4
_symmetry_space_group_name_H-M  'R3'
_cell_length_a       4.53396
_cell_length_b       4.53397
_cell_length_c       4.53397
_cell_angle_alpha    89.6095
_cell_angle_beta     89.6094
_cell_angle_gamma    89.6095

_symmetry_Int_Tables_number  146
_chemical_formula_structural  VFe3Si4
_chemical_formula_sum  VFe3Si4
_cell_volume  93.19746750178342
_cell_formula_units_Z  1
loop_
  _symmetry_equiv_pos_site_id
 _symmetry_equiv_pos_as_xyz
 1  'x, y, z'
loop_
 _atom_site_type_symbol
 _atom_site_label
 _atom_site_symmetry_multiplicity
 _atom_site_fract_x
 _atom_site_fract_y
 _atom_site_fract_z
 _atom_site_fract_occupancy
 Fe  Fe1  1  0.13721  0.37212  0.85357  1
 Fe  Fe2  1  0.37212  0.85357  0.13721  1
 Fe  Fe3  1  0.85357  0.13721  0.37212  1
 Si  Si1  1  0.33191  0.33191  0.33191  1
 Si  Si2  1  0.85748  0.66144  0.15163  1
 Si  Si3  1  0.66144  0.15163  0.85748  1
 Si  Si4  1  0.15163  0.85748  0.66144  1
 V  V1  1  0.63463  0.63463  0.63463  1
