CIF file written using JARVIS-Tools package.
data_CrFeGe2
_symmetry_space_group_name_H-M  'P2_1'
_cell_length_a       4.68817
_cell_length_b       4.73147
_cell_length_c       4.7272
_cell_angle_alpha    90.0776
_cell_angle_beta     90
_cell_angle_gamma    90

_symmetry_Int_Tables_number  4
_chemical_formula_structural  CrFeGe2
_chemical_formula_sum  Cr2Fe2Ge4
_cell_volume  104.85816381719229
_cell_formula_units_Z  2
loop_
  _symmetry_equiv_pos_site_id
 _symmetry_equiv_pos_as_xyz
 1  'x, y, z'
loop_
 _atom_site_type_symbol
 _atom_site_label
 _atom_site_symmetry_multiplicity
 _atom_site_fract_x
 _atom_site_fract_y
 _atom_site_fract_z
 _atom_site_fract_occupancy
 Cr  Cr1  1  0.63506  0.62712  0.89244  1
 Cr  Cr2  1  0.13506  0.37288  0.10756  1
 Fe  Fe1  1  0.36571  0.86229  0.38161  1
 Fe  Fe2  1  0.86571  0.13771  0.61839  1
 Ge  Ge1  1  0.34202  0.33787  0.58709  1
 Ge  Ge2  1  0.84202  0.66213  0.41291  1
 Ge  Ge3  1  0.65721  0.15226  0.09652  1
 Ge  Ge4  1  0.15721  0.84774  0.90348  1
