CIF file written using JARVIS-Tools package.
data_NaCaN
_symmetry_space_group_name_H-M  'P6_3mc'
_cell_length_a       3.84204
_cell_length_b       3.84204
_cell_length_c       8.88223
_cell_angle_alpha    90
_cell_angle_beta     90
_cell_angle_gamma    120

_symmetry_Int_Tables_number  186
_chemical_formula_structural  NaCaN
_chemical_formula_sum  Na2Ca2N2
_cell_volume  113.5472470540035
_cell_formula_units_Z  2
loop_
  _symmetry_equiv_pos_site_id
 _symmetry_equiv_pos_as_xyz
 1  'x, y, z'
loop_
 _atom_site_type_symbol
 _atom_site_label
 _atom_site_symmetry_multiplicity
 _atom_site_fract_x
 _atom_site_fract_y
 _atom_site_fract_z
 _atom_site_fract_occupancy
 Ca  Ca1  1  0.00001  0.00001  0.51176  1
 Ca  Ca2  1  -0.00001  -0.00001  0.01176  1
 N  N1  1  0.33333  0.66666  0.59869  1
 N  N2  1  0.66667  0.33334  0.09869  1
 Na  Na1  1  0.66667  0.33334  0.73419  1
 Na  Na2  1  0.33333  0.66666  0.23419  1
