CIF file written using JARVIS-Tools package.
data_BaMo6S8
_symmetry_space_group_name_H-M  'R-3'
_cell_length_a       6.69279
_cell_length_b       6.69324
_cell_length_c       6.69381
_cell_angle_alpha    88.4753
_cell_angle_beta     88.4692
_cell_angle_gamma    88.4644

_symmetry_Int_Tables_number  148
_chemical_formula_structural  BaMo6S8
_chemical_formula_sum  BaMo6S8
_cell_volume  299.5436194079539
_cell_formula_units_Z  1
loop_
  _symmetry_equiv_pos_site_id
 _symmetry_equiv_pos_as_xyz
 1  'x, y, z'
loop_
 _atom_site_type_symbol
 _atom_site_label
 _atom_site_symmetry_multiplicity
 _atom_site_fract_x
 _atom_site_fract_y
 _atom_site_fract_z
 _atom_site_fract_occupancy
 Ba  Ba1  1  0.00000  0.00000  0.00000  1
 Mo  Mo1  1  0.56589  0.41693  0.23576  1
 Mo  Mo2  1  0.43411  0.58307  0.76424  1
 Mo  Mo3  1  0.41694  0.23576  0.56585  1
 Mo  Mo4  1  0.58306  0.76424  0.43415  1
 Mo  Mo5  1  0.23581  0.56584  0.41696  1
 Mo  Mo6  1  0.76419  0.43416  0.58304  1
 S  S1  1  0.25199  0.25186  0.25193  1
 S  S2  1  0.74801  0.74814  0.74807  1
 S  S3  1  0.39160  0.73637  0.12267  1
 S  S4  1  0.60840  0.26363  0.87733  1
 S  S5  1  0.73642  0.12263  0.39156  1
 S  S6  1  0.26358  0.87737  0.60844  1
 S  S7  1  0.12263  0.39160  0.73640  1
 S  S8  1  0.87737  0.60840  0.26360  1
