CIF file written using JARVIS-Tools package.
data_H2O
_symmetry_space_group_name_H-M  'Cmc2_1'
_cell_length_a       4.20648
_cell_length_b       4.20648
_cell_length_c       6.9582
_cell_angle_alpha    90
_cell_angle_beta     90
_cell_angle_gamma    122.841

_symmetry_Int_Tables_number  36
_chemical_formula_structural  H2O
_chemical_formula_sum  H8O4
_cell_volume  103.44380422454061
_cell_formula_units_Z  4
loop_
  _symmetry_equiv_pos_site_id
 _symmetry_equiv_pos_as_xyz
 1  'x, y, z'
loop_
 _atom_site_type_symbol
 _atom_site_label
 _atom_site_symmetry_multiplicity
 _atom_site_fract_x
 _atom_site_fract_y
 _atom_site_fract_z
 _atom_site_fract_occupancy
 H  H1  1  0.00841  0.48717  0.55706  1
 H  H2  1  0.51283  -0.00841  0.55706  1
 H  H3  1  0.32184  0.67816  0.85750  1
 H  H4  1  0.53502  0.46498  0.07758  1
 H  H5  1  0.46498  0.53502  0.57758  1
 H  H6  1  0.67816  0.32184  0.35750  1
 H  H7  1  0.48717  0.00841  0.05706  1
 H  H8  1  -0.00841  0.51283  0.05706  1
 O  O1  1  0.31568  0.68432  0.00245  1
 O  O2  1  0.33453  0.66547  0.61834  1
 O  O3  1  0.68432  0.31568  0.50245  1
 O  O4  1  0.66547  0.33453  0.11834  1
