CIF file written using JARVIS-Tools package.
data_HoAl2Ni
_symmetry_space_group_name_H-M  'Cmcm'
_cell_length_a       4.05963
_cell_length_b       5.44487
_cell_length_c       6.87771
_cell_angle_alpha    90
_cell_angle_beta     90
_cell_angle_gamma    111.888

_symmetry_Int_Tables_number  63
_chemical_formula_structural  HoAl2Ni
_chemical_formula_sum  Ho2Al4Ni2
_cell_volume  141.06692771304702
_cell_formula_units_Z  2
loop_
  _symmetry_equiv_pos_site_id
 _symmetry_equiv_pos_as_xyz
 1  'x, y, z'
loop_
 _atom_site_type_symbol
 _atom_site_label
 _atom_site_symmetry_multiplicity
 _atom_site_fract_x
 _atom_site_fract_y
 _atom_site_fract_z
 _atom_site_fract_occupancy
 Al  Al1  1  0.34485  0.68970  0.94621  1
 Al  Al2  1  0.65515  0.31030  0.05379  1
 Al  Al3  1  0.65515  0.31030  0.44621  1
 Al  Al4  1  0.34485  0.68970  0.55379  1
 Ho  Ho1  1  0.93902  0.87804  0.25000  1
 Ho  Ho2  1  0.06098  0.12196  0.75000  1
 Ni  Ni1  1  0.21571  0.43143  0.25000  1
 Ni  Ni2  1  0.78429  0.56857  0.75000  1
