CIF file written using JARVIS-Tools package.
data_Tl2Bi2Te3Se
_symmetry_space_group_name_H-M  'Imm2'
_cell_length_a       7.945
_cell_length_b       7.945
_cell_length_c       7.945
_cell_angle_alpha    132.373
_cell_angle_beta     132.122
_cell_angle_gamma    69.8382

_symmetry_Int_Tables_number  44
_chemical_formula_structural  Tl2Bi2Te3Se
_chemical_formula_sum  Tl2Bi2Te3Se
_cell_volume  269.4814681445165
_cell_formula_units_Z  1
loop_
  _symmetry_equiv_pos_site_id
 _symmetry_equiv_pos_as_xyz
 1  'x, y, z'
loop_
 _atom_site_type_symbol
 _atom_site_label
 _atom_site_symmetry_multiplicity
 _atom_site_fract_x
 _atom_site_fract_y
 _atom_site_fract_z
 _atom_site_fract_occupancy
 Bi  Bi1  1  0.99751  0.49751  0.50000  1
 Bi  Bi2  1  0.76210  0.76210  0.00000  1
 Se  Se1  1  0.98509  0.98509  -0.00000  1
 Te  Te1  1  0.76024  0.26024  0.50000  1
 Te  Te2  1  0.51181  0.51181  0.00000  1
 Te  Te3  1  0.24048  0.74048  0.50000  1
 Tl  Tl1  1  0.49861  0.99861  0.50000  1
 Tl  Tl2  1  0.24030  0.24030  0.00000  1
