CIF file written using JARVIS-Tools package.
data_Al4Si
_symmetry_space_group_name_H-M  'R-3m'
_cell_length_a       11.5579
_cell_length_b       11.5579
_cell_length_c       11.5579
_cell_angle_alpha    14.2675
_cell_angle_beta     14.2675
_cell_angle_gamma    14.2675

_symmetry_Int_Tables_number  166
_chemical_formula_structural  Al4Si
_chemical_formula_sum  Al4Si
_cell_volume  81.63188752164771
_cell_formula_units_Z  1
loop_
  _symmetry_equiv_pos_site_id
 _symmetry_equiv_pos_as_xyz
 1  'x, y, z'
loop_
 _atom_site_type_symbol
 _atom_site_label
 _atom_site_symmetry_multiplicity
 _atom_site_fract_x
 _atom_site_fract_y
 _atom_site_fract_z
 _atom_site_fract_occupancy
 Al  Al1  1  0.60213  0.60213  0.60213  1
 Al  Al2  1  0.20099  0.20099  0.20099  1
 Al  Al3  1  0.79901  0.79901  0.79901  1
 Al  Al4  1  0.39787  0.39787  0.39787  1
 Si  Si1  1  0.00000  0.00000  0.00000  1
