CIF file written using JARVIS-Tools package.
data_TbPOs2C
_symmetry_space_group_name_H-M  'Cmcm'
_cell_length_a       5.90218
_cell_length_b       5.90218
_cell_length_c       7.06872
_cell_angle_alpha    90
_cell_angle_beta     90
_cell_angle_gamma    142.006

_symmetry_Int_Tables_number  63
_chemical_formula_structural  TbPOs2C
_chemical_formula_sum  Tb2P2Os4C2
_cell_volume  151.58337024054063
_cell_formula_units_Z  2
loop_
  _symmetry_equiv_pos_site_id
 _symmetry_equiv_pos_as_xyz
 1  'x, y, z'
loop_
 _atom_site_type_symbol
 _atom_site_label
 _atom_site_symmetry_multiplicity
 _atom_site_fract_x
 _atom_site_fract_y
 _atom_site_fract_z
 _atom_site_fract_occupancy
 C  C1  1  0.00000  0.00000  0.00000  1
 C  C2  1  0.00000  0.00000  0.50000  1
 Os  Os1  1  0.83432  0.16568  0.05215  1
 Os  Os2  1  0.16568  0.83432  0.94785  1
 Os  Os3  1  0.16568  0.83432  0.55215  1
 Os  Os4  1  0.83432  0.16568  0.44785  1
 P  P1  1  0.26876  0.73124  0.25000  1
 P  P2  1  0.73124  0.26876  0.75000  1
 Tb  Tb1  1  0.54383  0.45617  0.25000  1
 Tb  Tb2  1  0.45617  0.54383  0.75000  1
