CIF file written using JARVIS-Tools package.
data_TeI4
_symmetry_space_group_name_H-M  'C2/m'
_cell_length_a       7.88894
_cell_length_b       7.88894
_cell_length_c       6.45353
_cell_angle_alpha    81.1616
_cell_angle_beta     81.1616
_cell_angle_gamma    31.5937

_symmetry_Int_Tables_number  12
_chemical_formula_structural  TeI4
_chemical_formula_sum  TeI4
_cell_volume  207.7154348958137
_cell_formula_units_Z  1
loop_
  _symmetry_equiv_pos_site_id
 _symmetry_equiv_pos_as_xyz
 1  'x, y, z'
loop_
 _atom_site_type_symbol
 _atom_site_label
 _atom_site_symmetry_multiplicity
 _atom_site_fract_x
 _atom_site_fract_y
 _atom_site_fract_z
 _atom_site_fract_occupancy
 I  I1  1  0.15753  0.15753  0.21982  1
 I  I2  1  0.58905  0.58905  0.69742  1
 I  I3  1  0.84247  0.84247  0.78018  1
 I  I4  1  0.41095  0.41095  0.30258  1
 Te  Te1  1  0.00000  0.00000  0.00000  1
