CIF file written using JARVIS-Tools package.
data_ScSbPb2O6
_symmetry_space_group_name_H-M  'Imm2'
_cell_length_a       5.79437
_cell_length_b       5.79437
_cell_length_c       5.79437
_cell_angle_alpha    120.265
_cell_angle_beta     119.436
_cell_angle_gamma    90.2605

_symmetry_Int_Tables_number  44
_chemical_formula_structural  ScSbPb2O6
_chemical_formula_sum  ScSbPb2O6
_cell_volume  137.8637050773268
_cell_formula_units_Z  1
loop_
  _symmetry_equiv_pos_site_id
 _symmetry_equiv_pos_as_xyz
 1  'x, y, z'
loop_
 _atom_site_type_symbol
 _atom_site_label
 _atom_site_symmetry_multiplicity
 _atom_site_fract_x
 _atom_site_fract_y
 _atom_site_fract_z
 _atom_site_fract_occupancy
 O  O1  1  0.26895  0.24328  0.51223  1
 O  O2  1  0.26895  0.75672  0.02567  1
 O  O3  1  0.76289  0.74486  0.01803  1
 O  O4  1  0.75175  0.73624  0.48800  1
 O  O5  1  0.75175  0.26376  0.01551  1
 O  O6  1  0.27318  0.25514  0.01803  1
 Pb  Pb1  1  0.20255  0.75533  0.44721  1
 Pb  Pb2  1  0.69188  0.24467  0.44721  1
 Sb  Sb1  1  0.49542  0.50000  0.99542  1
 Sc  Sc1  1  0.98307  -0.00000  0.98307  1
