CIF file written using JARVIS-Tools package.
data_Bi4O7
_symmetry_space_group_name_H-M  'P-1'
_cell_length_a       6.78312
_cell_length_b       6.93786
_cell_length_c       7.91864
_cell_angle_alpha    107.035
_cell_angle_beta     89.2972
_cell_angle_gamma    101.002

_symmetry_Int_Tables_number  2
_chemical_formula_structural  Bi4O7
_chemical_formula_sum  Bi8O4
_cell_volume  349.37650261763906
_cell_formula_units_Z  2
loop_
  _symmetry_equiv_pos_site_id
 _symmetry_equiv_pos_as_xyz
 1  'x, y, z'
loop_
 _atom_site_type_symbol
 _atom_site_label
 _atom_site_symmetry_multiplicity
 _atom_site_fract_x
 _atom_site_fract_y
 _atom_site_fract_z
 _atom_site_fract_occupancy
 Bi  Bi1  1  -0.00000  -0.00000  0.50000  1
 Bi  Bi2  1  0.47135  0.99846  0.25519  1
 Bi  Bi3  1  0.52865  0.00154  0.74481  1
 Bi  Bi4  1  0.00000  0.00000  0.00000  1
 Bi  Bi5  1  0.26292  0.52160  0.88256  1
 Bi  Bi6  1  0.73708  0.47840  0.11744  1
 Bi  Bi7  1  0.72990  0.49369  0.61690  1
 Bi  Bi8  1  0.27010  0.50631  0.38310  1
 O  O1  1  0.46457  0.63172  0.18269  1
 O  O2  1  0.53543  0.36828  0.81731  1
 O  O3  1  0.88518  0.90987  0.72686  1
 O  O4  1  0.70499  0.05545  0.05493  1
 O  O5  1  0.28700  0.91367  0.51629  1
 O  O6  1  0.29501  0.94455  0.94507  1
 O  O7  1  0.08618  0.32475  0.03592  1
 O  O8  1  0.46860  0.65050  0.64013  1
 O  O9  1  0.91382  0.67525  0.96408  1
 O  O10  1  0.71300  0.08633  0.48371  1
 O  O11  1  0.10329  0.32436  0.62731  1
 O  O12  1  0.89671  0.67564  0.37269  1
 O  O13  1  0.53140  0.34950  0.35987  1
 O  O14  1  0.11482  0.09013  0.27314  1
