CIF file written using JARVIS-Tools package.
data_ZnSbO3
_symmetry_space_group_name_H-M  'P2_1/m'
_cell_length_a       5.47599
_cell_length_b       8.05123
_cell_length_c       5.5409
_cell_angle_alpha    90
_cell_angle_beta     91.7345
_cell_angle_gamma    90

_symmetry_Int_Tables_number  11
_chemical_formula_structural  ZnSbO3
_chemical_formula_sum  Zn4Sb4O2
_cell_volume  244.17818087343417
_cell_formula_units_Z  4
loop_
  _symmetry_equiv_pos_site_id
 _symmetry_equiv_pos_as_xyz
 1  'x, y, z'
loop_
 _atom_site_type_symbol
 _atom_site_label
 _atom_site_symmetry_multiplicity
 _atom_site_fract_x
 _atom_site_fract_y
 _atom_site_fract_z
 _atom_site_fract_occupancy
 O  O1  1  0.87305  0.75000  0.62846  1
 O  O2  1  0.64836  0.42951  0.68852  1
 O  O3  1  0.39158  0.75000  0.86520  1
 O  O4  1  0.35164  0.92951  0.31148  1
 O  O5  1  0.82100  0.57186  0.13670  1
 O  O6  1  0.17900  0.07186  0.86330  1
 O  O7  1  0.82100  0.92814  0.13670  1
 O  O8  1  0.60842  0.25000  0.13480  1
 O  O9  1  0.64836  0.07049  0.68852  1
 O  O10  1  0.12695  0.25000  0.37154  1
 O  O11  1  0.35164  0.57049  0.31148  1
 O  O12  1  0.17900  0.42814  0.86330  1
 Sb  Sb1  1  0.50000  0.00000  -0.00000  1
 Sb  Sb2  1  0.50000  0.50000  -0.00000  1
 Sb  Sb3  1  0.00000  0.00000  0.50000  1
 Sb  Sb4  1  0.00000  0.50000  0.50000  1
 Zn  Zn1  1  0.98643  0.25000  0.02977  1
 Zn  Zn2  1  0.01357  0.75000  0.97023  1
 Zn  Zn3  1  0.47596  0.25000  0.49510  1
 Zn  Zn4  1  0.52404  0.75000  0.50490  1
