CIF file written using JARVIS-Tools package.
data_Ba2YBi3O8
_symmetry_space_group_name_H-M  'P4/mmm'
_cell_length_a       4.38286
_cell_length_b       4.38286
_cell_length_c       13.6381
_cell_angle_alpha    90
_cell_angle_beta     90
_cell_angle_gamma    90

_symmetry_Int_Tables_number  123
_chemical_formula_structural  Ba2YBi3O8
_chemical_formula_sum  Ba2YBi3O8
_cell_volume  261.98109187698225
_cell_formula_units_Z  1
loop_
  _symmetry_equiv_pos_site_id
 _symmetry_equiv_pos_as_xyz
 1  'x, y, z'
loop_
 _atom_site_type_symbol
 _atom_site_label
 _atom_site_symmetry_multiplicity
 _atom_site_fract_x
 _atom_site_fract_y
 _atom_site_fract_z
 _atom_site_fract_occupancy
 Ba  Ba1  1  0.50000  0.50000  0.85608  1
 Ba  Ba2  1  0.50000  0.50000  0.14392  1
 Bi  Bi1  1  0.00000  0.00000  0.65453  1
 Bi  Bi2  1  0.00000  0.00000  0.00000  1
 Bi  Bi3  1  0.00000  0.00000  0.34547  1
 O  O1  1  0.50000  0.00000  0.59817  1
 O  O2  1  0.00000  0.50000  0.59817  1
 O  O3  1  0.00000  0.50000  0.00000  1
 O  O4  1  0.00000  0.00000  0.82172  1
 O  O5  1  0.50000  0.00000  0.40183  1
 O  O6  1  0.00000  0.50000  0.40183  1
 O  O7  1  0.00000  0.00000  0.17828  1
 O  O8  1  0.50000  0.00000  0.00000  1
 Y  Y1  1  0.50000  0.50000  0.50000  1
