CIF file written using JARVIS-Tools package.
data_La2MgFeO6
_symmetry_space_group_name_H-M  'R-3'
_cell_length_a       5.43733
_cell_length_b       5.43748
_cell_length_c       5.43741
_cell_angle_alpha    60.9224
_cell_angle_beta     60.9208
_cell_angle_gamma    60.9188

_symmetry_Int_Tables_number  148
_chemical_formula_structural  La2MgFeO6
_chemical_formula_sum  La2MgFeO6
_cell_volume  116.0324510458927
_cell_formula_units_Z  1
loop_
  _symmetry_equiv_pos_site_id
 _symmetry_equiv_pos_as_xyz
 1  'x, y, z'
loop_
 _atom_site_type_symbol
 _atom_site_label
 _atom_site_symmetry_multiplicity
 _atom_site_fract_x
 _atom_site_fract_y
 _atom_site_fract_z
 _atom_site_fract_occupancy
 Fe  Fe1  1  0.00000  -0.00000  0.00000  1
 La  La1  1  0.75072  0.75071  0.75073  1
 La  La2  1  0.24928  0.24928  0.24927  1
 Mg  Mg1  1  0.50000  0.50000  0.50000  1
 O  O1  1  0.29701  0.76153  0.18500  1
 O  O2  1  0.76158  0.18498  0.29703  1
 O  O3  1  0.18501  0.29700  0.76159  1
 O  O4  1  0.70299  0.23847  0.81500  1
 O  O5  1  0.81499  0.70300  0.23841  1
 O  O6  1  0.23842  0.81502  0.70297  1
