CIF file written using JARVIS-Tools package.
data_MoHO3
_symmetry_space_group_name_H-M  'C2'
_cell_length_a       8.13985
_cell_length_b       8.13985
_cell_length_c       3.74597
_cell_angle_alpha    86.1652
_cell_angle_beta     86.1652
_cell_angle_gamma    27.0363

_symmetry_Int_Tables_number  5
_chemical_formula_structural  MoHO3
_chemical_formula_sum  Mo2H2O6
_cell_volume  112.55240818141382
_cell_formula_units_Z  2
loop_
  _symmetry_equiv_pos_site_id
 _symmetry_equiv_pos_as_xyz
 1  'x, y, z'
loop_
 _atom_site_type_symbol
 _atom_site_label
 _atom_site_symmetry_multiplicity
 _atom_site_fract_x
 _atom_site_fract_y
 _atom_site_fract_z
 _atom_site_fract_occupancy
 H  H1  1  0.56649  0.95516  0.95470  1
 H  H2  1  0.04484  0.43351  0.04530  1
 Mo  Mo1  1  0.10343  0.07066  0.23803  1
 Mo  Mo2  1  0.92934  0.89657  0.76197  1
 O  O1  1  0.96614  0.93223  0.25716  1
 O  O2  1  0.06777  0.03386  0.74284  1
 O  O3  1  0.60638  0.57144  0.23988  1
 O  O4  1  0.42856  0.39362  0.76012  1
 O  O5  1  0.22983  0.18277  0.13827  1
 O  O6  1  0.81723  0.77017  0.86173  1
