CIF file written using JARVIS-Tools package.
data_LiAsS2
_symmetry_space_group_name_H-M  'Cc'
_cell_length_a       5.35782
_cell_length_b       5.351
_cell_length_c       6.52424
_cell_angle_alpha    114.21
_cell_angle_beta     111.253
_cell_angle_gamma    90.0002

_symmetry_Int_Tables_number  9
_chemical_formula_structural  LiAsS2
_chemical_formula_sum  Li2As2S4
_cell_volume  156.54401431304228
_cell_formula_units_Z  2
loop_
  _symmetry_equiv_pos_site_id
 _symmetry_equiv_pos_as_xyz
 1  'x, y, z'
loop_
 _atom_site_type_symbol
 _atom_site_label
 _atom_site_symmetry_multiplicity
 _atom_site_fract_x
 _atom_site_fract_y
 _atom_site_fract_z
 _atom_site_fract_occupancy
 As  As1  1  0.68619  0.94629  0.44435  1
 As  As2  1  0.18619  0.49806  0.44435  1
 Li  Li1  1  -0.00063  0.76243  0.00062  1
 Li  Li2  1  0.49941  0.23818  0.00061  1
 S  S1  1  0.52461  0.75977  0.03979  1
 S  S2  1  0.02462  0.28002  0.03979  1
 S  S3  1  0.28360  0.97586  0.52239  1
 S  S4  1  0.78360  0.54653  0.52238  1
