CIF file written using JARVIS-Tools package.
data_SiO2
_symmetry_space_group_name_H-M  'I-42d'
_cell_length_a       5.07777
_cell_length_b       5.07781
_cell_length_c       5.0778
_cell_angle_alpha    86.8417
_cell_angle_beta     121.84
_cell_angle_gamma    121.84

_symmetry_Int_Tables_number  122
_chemical_formula_structural  SiO2
_chemical_formula_sum  Si2O4
_cell_volume  89.85533273265445
_cell_formula_units_Z  2
loop_
  _symmetry_equiv_pos_site_id
 _symmetry_equiv_pos_as_xyz
 1  'x, y, z'
loop_
 _atom_site_type_symbol
 _atom_site_label
 _atom_site_symmetry_multiplicity
 _atom_site_fract_x
 _atom_site_fract_y
 _atom_site_fract_z
 _atom_site_fract_occupancy
 O  O1  1  0.35759  0.37500  0.23258  1
 O  O2  1  0.85759  0.98259  0.62500  1
 O  O3  1  0.14241  0.76741  0.12500  1
 O  O4  1  0.64241  0.87500  0.01740  1
 Si  Si1  1  0.00000  -0.00000  0.00000  1
 Si  Si2  1  0.50000  0.75000  0.25000  1
