CIF file written using JARVIS-Tools package.
data_CoOF
_symmetry_space_group_name_H-M  'Cmmm'
_cell_length_a       4.47793
_cell_length_b       4.47794
_cell_length_c       2.91982
_cell_angle_alpha    90
_cell_angle_beta     90
_cell_angle_gamma    96.6821

_symmetry_Int_Tables_number  65
_chemical_formula_structural  CoOF
_chemical_formula_sum  Co2O2F2
_cell_volume  58.15019823639873
_cell_formula_units_Z  2
loop_
  _symmetry_equiv_pos_site_id
 _symmetry_equiv_pos_as_xyz
 1  'x, y, z'
loop_
 _atom_site_type_symbol
 _atom_site_label
 _atom_site_symmetry_multiplicity
 _atom_site_fract_x
 _atom_site_fract_y
 _atom_site_fract_z
 _atom_site_fract_occupancy
 Co  Co1  1  0.00000  0.00000  0.00000  1
 Co  Co2  1  0.50000  0.50000  0.50000  1
 F  F1  1  0.20956  0.79044  0.50000  1
 F  F2  1  0.79044  0.20956  0.50000  1
 O  O1  1  0.30138  0.30138  0.00000  1
 O  O2  1  0.69862  0.69862  0.00000  1
