CIF file written using JARVIS-Tools package.
data_NaFeSi2O6
_symmetry_space_group_name_H-M  'C2/c'
_cell_length_a       5.26603
_cell_length_b       6.42291
_cell_length_c       6.42291
_cell_angle_alpha    84.2084
_cell_angle_beta     77.04
_cell_angle_gamma    77.0401

_symmetry_Int_Tables_number  15
_chemical_formula_structural  NaFeSi2O6
_chemical_formula_sum  Na2Fe2Si4O2
_cell_volume  206.02346851555077
_cell_formula_units_Z  2
loop_
  _symmetry_equiv_pos_site_id
 _symmetry_equiv_pos_as_xyz
 1  'x, y, z'
loop_
 _atom_site_type_symbol
 _atom_site_label
 _atom_site_symmetry_multiplicity
 _atom_site_fract_x
 _atom_site_fract_y
 _atom_site_fract_z
 _atom_site_fract_occupancy
 Fe  Fe1  1  0.25000  0.08615  0.91385  1
 Fe  Fe2  1  0.75000  0.91385  0.08615  1
 Na  Na1  1  0.25000  0.70110  0.29890  1
 Na  Na2  1  0.75000  0.29890  0.70110  1
 O  O1  1  0.00222  0.63278  0.65687  1
 O  O2  1  0.50222  0.65688  0.63278  1
 O  O3  1  0.99778  0.36722  0.34313  1
 O  O4  1  0.19356  0.09601  0.62665  1
 O  O5  1  0.30644  0.37335  0.90399  1
 O  O6  1  0.80644  0.90399  0.37335  1
 O  O7  1  0.69356  0.62665  0.09601  1
 O  O8  1  0.36765  0.03080  0.19039  1
 O  O9  1  0.86765  0.19039  0.03080  1
 O  O10  1  0.13235  0.80961  0.96920  1
 O  O11  1  0.49778  0.34313  0.36722  1
 O  O12  1  0.63235  0.96920  0.80961  1
 Si  Si1  1  0.22858  0.61279  0.80127  1
 Si  Si2  1  0.77142  0.38721  0.19872  1
 Si  Si3  1  0.72858  0.80128  0.61279  1
 Si  Si4  1  0.27142  0.19872  0.38721  1
