CIF file written using JARVIS-Tools package.
data_Sr2MoO4
_symmetry_space_group_name_H-M  'I4/mmm'
_cell_length_a       3.9152
_cell_length_b       3.9152
_cell_length_c       7.05304
_cell_angle_alpha    106.114
_cell_angle_beta     106.114
_cell_angle_gamma    90.0001

_symmetry_Int_Tables_number  139
_chemical_formula_structural  Sr2MoO4
_chemical_formula_sum  Sr2MoO4
_cell_volume  99.437429815827
_cell_formula_units_Z  1
loop_
  _symmetry_equiv_pos_site_id
 _symmetry_equiv_pos_as_xyz
 1  'x, y, z'
loop_
 _atom_site_type_symbol
 _atom_site_label
 _atom_site_symmetry_multiplicity
 _atom_site_fract_x
 _atom_site_fract_y
 _atom_site_fract_z
 _atom_site_fract_occupancy
 Mo  Mo1  1  0.00000  0.00000  0.00000  1
 O  O1  1  0.00000  0.50000  0.00000  1
 O  O2  1  0.50000  0.00000  -0.00000  1
 O  O3  1  0.83658  0.83658  0.67316  1
 O  O4  1  0.16342  0.16342  0.32684  1
 Sr  Sr1  1  0.35116  0.35116  0.70232  1
 Sr  Sr2  1  0.64884  0.64884  0.29768  1
