CIF file written using JARVIS-Tools package.
data_K2BaSnTe4
_symmetry_space_group_name_H-M  'I-42m'
_cell_length_a       7.28998
_cell_length_b       7.28997
_cell_length_c       7.28997
_cell_angle_alpha    109.335
_cell_angle_beta     109.335
_cell_angle_gamma    109.744

_symmetry_Int_Tables_number  121
_chemical_formula_structural  K2BaSnTe4
_chemical_formula_sum  K2BaSnTe4
_cell_volume  298.2281364277916
_cell_formula_units_Z  1
loop_
  _symmetry_equiv_pos_site_id
 _symmetry_equiv_pos_as_xyz
 1  'x, y, z'
loop_
 _atom_site_type_symbol
 _atom_site_label
 _atom_site_symmetry_multiplicity
 _atom_site_fract_x
 _atom_site_fract_y
 _atom_site_fract_z
 _atom_site_fract_occupancy
 Ba  Ba1  1  0.50000  0.50000  0.00000  1
 K  K1  1  0.50000  0.00000  0.50000  1
 K  K2  1  0.00000  0.50000  0.50000  1
 Sn  Sn1  1  0.00000  0.00000  0.00000  1
 Te  Te1  1  0.38851  0.38851  0.38986  1
 Te  Te2  1  -0.00135  -0.00135  0.61014  1
 Te  Te3  1  0.61149  0.00135  0.00000  1
 Te  Te4  1  0.00135  0.61149  0.00000  1
