CIF file written using JARVIS-Tools package.
data_BaNi2P4
_symmetry_space_group_name_H-M  'Immm'
_cell_length_a       5.49593
_cell_length_b       5.49593
_cell_length_c       5.49593
_cell_angle_alpha    105.466
_cell_angle_beta     107.649
_cell_angle_gamma    115.477

_symmetry_Int_Tables_number  71
_chemical_formula_structural  BaNi2P4
_chemical_formula_sum  BaNi2P4
_cell_volume  126.68617906740924
_cell_formula_units_Z  1
loop_
  _symmetry_equiv_pos_site_id
 _symmetry_equiv_pos_as_xyz
 1  'x, y, z'
loop_
 _atom_site_type_symbol
 _atom_site_label
 _atom_site_symmetry_multiplicity
 _atom_site_fract_x
 _atom_site_fract_y
 _atom_site_fract_z
 _atom_site_fract_occupancy
 Ba  Ba1  1  0.00000  0.00000  0.00000  1
 Ni  Ni1  1  0.26517  0.76517  0.50000  1
 Ni  Ni2  1  0.73483  0.23483  0.50000  1
 P  P1  1  0.25124  0.50000  0.75124  1
 P  P2  1  0.74876  0.50000  0.24876  1
 P  P3  1  0.50000  0.73941  0.23941  1
 P  P4  1  0.50000  0.26059  0.76059  1
