CIF file written using JARVIS-Tools package.
data_Sm5Co2
_symmetry_space_group_name_H-M  'C2/c'
_cell_length_a       6.3686
_cell_length_b       6.94538
_cell_length_c       8.74927
_cell_angle_alpha    96.0784
_cell_angle_beta     111.343
_cell_angle_gamma    90

_symmetry_Int_Tables_number  15
_chemical_formula_structural  Sm5Co2
_chemical_formula_sum  Sm0Co4
_cell_volume  358.12238219715954
_cell_formula_units_Z  2
loop_
  _symmetry_equiv_pos_site_id
 _symmetry_equiv_pos_as_xyz
 1  'x, y, z'
loop_
 _atom_site_type_symbol
 _atom_site_label
 _atom_site_symmetry_multiplicity
 _atom_site_fract_x
 _atom_site_fract_y
 _atom_site_fract_z
 _atom_site_fract_occupancy
 Co  Co1  1  0.59652  0.42678  0.77866  1
 Co  Co2  1  0.81787  0.07322  0.22134  1
 Co  Co3  1  0.40348  0.57322  0.22134  1
 Co  Co4  1  0.18213  0.92678  0.77866  1
 Sm  Sm1  1  0.35494  0.68416  0.57061  1
 Sm  Sm2  1  0.78433  0.81584  0.42939  1
 Sm  Sm3  1  0.64506  0.31584  0.42939  1
 Sm  Sm4  1  0.21567  0.18416  0.57061  1
 Sm  Sm5  1  0.57052  0.75000  0.00000  1
 Sm  Sm6  1  0.42948  0.25000  -0.00000  1
 Sm  Sm7  1  0.79971  0.08483  0.81058  1
 Sm  Sm8  1  0.98914  0.41517  0.18942  1
 Sm  Sm9  1  0.20029  0.91517  0.18942  1
 Sm  Sm10  1  0.01086  0.58483  0.81058  1
