CIF file written using JARVIS-Tools package.
data_CePrO4
_symmetry_space_group_name_H-M  'P4/mmm'
_cell_length_a       3.91711
_cell_length_b       3.91711
_cell_length_c       5.65909
_cell_angle_alpha    90
_cell_angle_beta     90
_cell_angle_gamma    90

_symmetry_Int_Tables_number  123
_chemical_formula_structural  CePrO4
_chemical_formula_sum  CePrO4
_cell_volume  86.83162216287931
_cell_formula_units_Z  1
loop_
  _symmetry_equiv_pos_site_id
 _symmetry_equiv_pos_as_xyz
 1  'x, y, z'
loop_
 _atom_site_type_symbol
 _atom_site_label
 _atom_site_symmetry_multiplicity
 _atom_site_fract_x
 _atom_site_fract_y
 _atom_site_fract_z
 _atom_site_fract_occupancy
 Ce  Ce1  1  0.00000  0.00000  0.00000  1
 O  O1  1  0.50000  0.00000  0.76278  1
 O  O2  1  0.00000  0.50000  0.23722  1
 O  O3  1  0.50000  0.00000  0.23722  1
 O  O4  1  0.00000  0.50000  0.76278  1
 Pr  Pr1  1  0.50000  0.50000  0.50000  1
