CIF file written using JARVIS-Tools package.
data_Hf2Al3Au
_symmetry_space_group_name_H-M  'R-3m'
_cell_length_a       5.2555
_cell_length_b       5.2555
_cell_length_c       5.2555
_cell_angle_alpha    60.8304
_cell_angle_beta     60.8303
_cell_angle_gamma    60.8304

_symmetry_Int_Tables_number  166
_chemical_formula_structural  Hf2Al3Au
_chemical_formula_sum  Hf2Al3Au
_cell_volume  104.56477755061889
_cell_formula_units_Z  1
loop_
  _symmetry_equiv_pos_site_id
 _symmetry_equiv_pos_as_xyz
 1  'x, y, z'
loop_
 _atom_site_type_symbol
 _atom_site_label
 _atom_site_symmetry_multiplicity
 _atom_site_fract_x
 _atom_site_fract_y
 _atom_site_fract_z
 _atom_site_fract_occupancy
 Al  Al1  1  0.50000  -0.00000  -0.00000  1
 Al  Al2  1  0.00000  0.00000  0.50000  1
 Al  Al3  1  0.00000  0.50000  -0.00000  1
 Au  Au1  1  0.00000  0.00000  0.00000  1
 Hf  Hf1  1  0.37719  0.37719  0.37719  1
 Hf  Hf2  1  0.62281  0.62281  0.62281  1
