CIF file written using JARVIS-Tools package.
data_UBe13
_symmetry_space_group_name_H-M  'Fm-3c'
_cell_length_a       7.17883
_cell_length_b       7.17884
_cell_length_c       7.17884
_cell_angle_alpha    60
_cell_angle_beta     60
_cell_angle_gamma    60

_symmetry_Int_Tables_number  226
_chemical_formula_structural  UBe13
_chemical_formula_sum  U2Be26
_cell_volume  261.605594241315
_cell_formula_units_Z  2
loop_
  _symmetry_equiv_pos_site_id
 _symmetry_equiv_pos_as_xyz
 1  'x, y, z'
loop_
 _atom_site_type_symbol
 _atom_site_label
 _atom_site_symmetry_multiplicity
 _atom_site_fract_x
 _atom_site_fract_y
 _atom_site_fract_z
 _atom_site_fract_occupancy
 Be  Be1  1  0.05978  0.70808  0.94022  1
 Be  Be2  1  0.70808  0.94022  0.05978  1
 Be  Be3  1  0.00000  0.00000  0.00000  1
 Be  Be4  1  0.50000  0.50000  0.50000  1
 Be  Be5  1  0.29192  0.05978  0.94022  1
 Be  Be6  1  0.44022  0.55978  0.79192  1
 Be  Be7  1  0.79192  0.20808  0.44022  1
 Be  Be8  1  0.44022  0.79192  0.20808  1
 Be  Be9  1  0.55978  0.20808  0.79192  1
 Be  Be10  1  0.55978  0.79192  0.44022  1
 Be  Be11  1  0.79192  0.55978  0.20808  1
 Be  Be12  1  0.94022  0.29192  0.05978  1
 Be  Be13  1  0.05978  0.29192  0.70808  1
 Be  Be14  1  0.70808  0.29192  0.94022  1
 Be  Be15  1  0.70808  0.05978  0.29192  1
 Be  Be16  1  0.94022  0.05978  0.70808  1
 Be  Be17  1  0.29192  0.94022  0.70808  1
 Be  Be18  1  0.29192  0.70808  0.05978  1
 Be  Be19  1  0.79192  0.44022  0.55978  1
 Be  Be20  1  0.20808  0.79192  0.55978  1
 Be  Be21  1  0.20808  0.44022  0.79192  1
 Be  Be22  1  0.44022  0.20808  0.55978  1
 Be  Be23  1  0.55978  0.44022  0.20808  1
 Be  Be24  1  0.20808  0.55978  0.44022  1
 Be  Be25  1  0.94022  0.70808  0.29192  1
 Be  Be26  1  0.05978  0.94022  0.29192  1
 U  U1  1  0.75000  0.75000  0.75000  1
 U  U2  1  0.25000  0.25000  0.25000  1
