CIF file written using JARVIS-Tools package.
data_CdAg2SnS4
_symmetry_space_group_name_H-M  'Pm'
_cell_length_a       4.07542
_cell_length_b       6.82347
_cell_length_c       7.25166
_cell_angle_alpha    89.362
_cell_angle_beta     90
_cell_angle_gamma    90

_symmetry_Int_Tables_number  6
_chemical_formula_structural  CdAg2SnS4
_chemical_formula_sum  CdAg2SnS4
_cell_volume  201.64530574783964
_cell_formula_units_Z  1
loop_
  _symmetry_equiv_pos_site_id
 _symmetry_equiv_pos_as_xyz
 1  'x, y, z'
loop_
 _atom_site_type_symbol
 _atom_site_label
 _atom_site_symmetry_multiplicity
 _atom_site_fract_x
 _atom_site_fract_y
 _atom_site_fract_z
 _atom_site_fract_occupancy
 Ag  Ag1  1  0.50000  0.13598  0.66969  1
 Ag  Ag2  1  0.50000  0.64765  0.31190  1
 Cd  Cd1  1  0.00000  0.11047  0.17400  1
 S  S1  1  0.50000  0.51038  0.66503  1
 S  S2  1  0.00000  0.49516  0.15143  1
 S  S3  1  0.50000  0.01012  0.34759  1
 S  S4  1  0.00000  0.99022  0.83728  1
 Sn  Sn1  1  0.00000  0.63524  0.84308  1
