CIF file written using JARVIS-Tools package.
data_Yb4Mn2Sn5
_symmetry_space_group_name_H-M  'C2/m'
_cell_length_a       4.56064
_cell_length_b       7.68745
_cell_length_c       8.5424
_cell_angle_alpha    106.718
_cell_angle_beta     105.482
_cell_angle_gamma    90

_symmetry_Int_Tables_number  12
_chemical_formula_structural  Yb4Mn2Sn5
_chemical_formula_sum  Yb4Mn2Sn5
_cell_volume  275.4685505049832
_cell_formula_units_Z  1
loop_
  _symmetry_equiv_pos_site_id
 _symmetry_equiv_pos_as_xyz
 1  'x, y, z'
loop_
 _atom_site_type_symbol
 _atom_site_label
 _atom_site_symmetry_multiplicity
 _atom_site_fract_x
 _atom_site_fract_y
 _atom_site_fract_z
 _atom_site_fract_occupancy
 Mn  Mn1  1  0.27486  0.89460  0.54971  1
 Mn  Mn2  1  0.72514  0.10540  0.45029  1
 Sn  Sn1  1  0.42812  0.83877  0.85624  1
 Sn  Sn2  1  0.30040  0.25625  0.60080  1
 Sn  Sn3  1  0.50000  0.50000  0.00000  1
 Sn  Sn4  1  0.57188  0.16123  0.14376  1
 Sn  Sn5  1  0.69960  0.74375  0.39920  1
 Yb  Yb1  1  0.91919  0.13315  0.83838  1
 Yb  Yb2  1  0.85179  0.55758  0.70358  1
 Yb  Yb3  1  0.08081  0.86685  0.16162  1
 Yb  Yb4  1  0.14821  0.44242  0.29642  1
