CIF file written using JARVIS-Tools package.
data_KNa4Cl5
_symmetry_space_group_name_H-M  'I4/mmm'
_cell_length_a       14.6054
_cell_length_b       14.6054
_cell_length_c       14.6054
_cell_angle_alpha    163.857
_cell_angle_beta     163.857
_cell_angle_gamma    22.9059

_symmetry_Int_Tables_number  139
_chemical_formula_structural  KNa4Cl5
_chemical_formula_sum  KNa4Cl5
_cell_volume  240.78791063612184
_cell_formula_units_Z  1
loop_
  _symmetry_equiv_pos_site_id
 _symmetry_equiv_pos_as_xyz
 1  'x, y, z'
loop_
 _atom_site_type_symbol
 _atom_site_label
 _atom_site_symmetry_multiplicity
 _atom_site_fract_x
 _atom_site_fract_y
 _atom_site_fract_z
 _atom_site_fract_occupancy
 Cl  Cl1  1  0.10591  0.10591  -0.00000  1
 Cl  Cl2  1  0.50000  0.50000  0.00000  1
 Cl  Cl3  1  0.89409  0.89409  0.00000  1
 Cl  Cl4  1  0.29874  0.29874  0.00000  1
 Cl  Cl5  1  0.70126  0.70126  -0.00000  1
 K  K1  1  0.00000  0.00000  0.00000  1
 Na  Na1  1  0.39624  0.39624  0.00000  1
 Na  Na2  1  0.79788  0.79788  0.00000  1
 Na  Na3  1  0.20212  0.20212  -0.00000  1
 Na  Na4  1  0.60376  0.60376  -0.00000  1
