CIF file written using JARVIS-Tools package.
data_CrIr3
_symmetry_space_group_name_H-M  'P6_3/mmc'
_cell_length_a       5.44888
_cell_length_b       5.44888
_cell_length_c       4.3148
_cell_angle_alpha    90
_cell_angle_beta     90
_cell_angle_gamma    120

_symmetry_Int_Tables_number  194
_chemical_formula_structural  CrIr3
_chemical_formula_sum  Cr2Ir6
_cell_volume  110.94426555273881
_cell_formula_units_Z  2
loop_
  _symmetry_equiv_pos_site_id
 _symmetry_equiv_pos_as_xyz
 1  'x, y, z'
loop_
 _atom_site_type_symbol
 _atom_site_label
 _atom_site_symmetry_multiplicity
 _atom_site_fract_x
 _atom_site_fract_y
 _atom_site_fract_z
 _atom_site_fract_occupancy
 Cr  Cr1  1  0.33333  0.66667  0.75000  1
 Cr  Cr2  1  0.66667  0.33333  0.25000  1
 Ir  Ir1  1  0.16937  0.33873  0.25000  1
 Ir  Ir2  1  0.66127  0.83063  0.25000  1
 Ir  Ir3  1  0.16937  0.83063  0.25000  1
 Ir  Ir4  1  0.83063  0.66127  0.75000  1
 Ir  Ir5  1  0.33873  0.16937  0.75000  1
 Ir  Ir6  1  0.83063  0.16937  0.75000  1
