CIF file written using JARVIS-Tools package.
data_CoAgO3
_symmetry_space_group_name_H-M  'R-3'
_cell_length_a       5.83354
_cell_length_b       5.83369
_cell_length_c       5.83347
_cell_angle_alpha    50.5895
_cell_angle_beta     50.5904
_cell_angle_gamma    50.5884

_symmetry_Int_Tables_number  148
_chemical_formula_structural  CoAgO3
_chemical_formula_sum  Co2Ag2O6
_cell_volume  109.20301700717351
_cell_formula_units_Z  2
loop_
  _symmetry_equiv_pos_site_id
 _symmetry_equiv_pos_as_xyz
 1  'x, y, z'
loop_
 _atom_site_type_symbol
 _atom_site_label
 _atom_site_symmetry_multiplicity
 _atom_site_fract_x
 _atom_site_fract_y
 _atom_site_fract_z
 _atom_site_fract_occupancy
 Ag  Ag1  1  0.36380  0.36382  0.36381  1
 Ag  Ag2  1  0.63620  0.63618  0.63619  1
 Co  Co1  1  0.16262  0.16263  0.16263  1
 Co  Co2  1  0.83738  0.83737  0.83737  1
 O  O1  1  0.03970  0.81446  0.43947  1
 O  O2  1  0.56053  0.96030  0.18555  1
 O  O3  1  0.18555  0.56052  0.96031  1
 O  O4  1  0.81445  0.43948  0.03969  1
 O  O5  1  0.43947  0.03970  0.81445  1
 O  O6  1  0.96030  0.18554  0.56053  1
