CIF file written using JARVIS-Tools package.
data_NaCo2O4
_symmetry_space_group_name_H-M  'P-6m2'
_cell_length_a       2.86412
_cell_length_b       2.86413
_cell_length_c       9.63439
_cell_angle_alpha    90
_cell_angle_beta     90
_cell_angle_gamma    119.994

_symmetry_Int_Tables_number  187
_chemical_formula_structural  NaCo2O4
_chemical_formula_sum  NaCo2O4
_cell_volume  68.44885894869547
_cell_formula_units_Z  1
loop_
  _symmetry_equiv_pos_site_id
 _symmetry_equiv_pos_as_xyz
 1  'x, y, z'
loop_
 _atom_site_type_symbol
 _atom_site_label
 _atom_site_symmetry_multiplicity
 _atom_site_fract_x
 _atom_site_fract_y
 _atom_site_fract_z
 _atom_site_fract_occupancy
 Co  Co1  1  0.00001  -0.00001  0.27609  1
 Co  Co2  1  0.00001  -0.00001  0.72391  1
 Na  Na1  1  0.33329  0.66671  0.00000  1
 O  O1  1  0.66662  0.33338  0.16771  1
 O  O2  1  0.33337  0.66663  0.36632  1
 O  O3  1  0.33337  0.66663  0.63368  1
 O  O4  1  0.66662  0.33338  0.83229  1
