CIF file written using JARVIS-Tools package.
data_CoPd2Se2
_symmetry_space_group_name_H-M  'Ibam'
_cell_length_a       5.04959
_cell_length_b       6.02865
_cell_length_c       6.62383
_cell_angle_alpha    117.07
_cell_angle_beta     112.406
_cell_angle_gamma    90

_symmetry_Int_Tables_number  72
_chemical_formula_structural  CoPd2Se2
_chemical_formula_sum  Co2Pd4Se4
_cell_volume  162.2726614572727
_cell_formula_units_Z  2
loop_
  _symmetry_equiv_pos_site_id
 _symmetry_equiv_pos_as_xyz
 1  'x, y, z'
loop_
 _atom_site_type_symbol
 _atom_site_label
 _atom_site_symmetry_multiplicity
 _atom_site_fract_x
 _atom_site_fract_y
 _atom_site_fract_z
 _atom_site_fract_occupancy
 Co  Co1  1  0.75000  0.00000  -0.00000  1
 Co  Co2  1  0.25000  -0.00000  -0.00000  1
 Pd  Pd1  1  0.88738  0.26529  0.77476  1
 Pd  Pd2  1  0.11262  0.73471  0.22524  1
 Pd  Pd3  1  0.61262  0.49053  0.22524  1
 Pd  Pd4  1  0.38738  0.50947  0.77476  1
 Se  Se1  1  0.64214  0.93383  0.28429  1
 Se  Se2  1  0.35786  0.06617  0.71571  1
 Se  Se3  1  0.14214  0.35046  0.28429  1
 Se  Se4  1  0.85786  0.64954  0.71571  1
