CIF file written using JARVIS-Tools package.
data_Cu2SiTe3
_symmetry_space_group_name_H-M  'Imm2'
_cell_length_a       7.28252
_cell_length_b       7.28252
_cell_length_c       7.28252
_cell_angle_alpha    145.787
_cell_angle_beta     131.951
_cell_angle_gamma    60.301

_symmetry_Int_Tables_number  44
_chemical_formula_structural  Cu2SiTe3
_chemical_formula_sum  Cu2SiTe3
_cell_volume  159.98333250047708
_cell_formula_units_Z  1
loop_
  _symmetry_equiv_pos_site_id
 _symmetry_equiv_pos_as_xyz
 1  'x, y, z'
loop_
 _atom_site_type_symbol
 _atom_site_label
 _atom_site_symmetry_multiplicity
 _atom_site_fract_x
 _atom_site_fract_y
 _atom_site_fract_z
 _atom_site_fract_occupancy
 Cu  Cu1  1  0.15716  0.16667  0.99050  1
 Cu  Cu2  1  0.82383  0.83333  0.99050  1
 Si  Si1  1  0.51644  0.50000  0.01644  1
 Te  Te1  1  0.92204  0.66941  0.25263  1
 Te  Te2  1  0.58322  0.33059  0.25263  1
 Te  Te3  1  0.24731  0.00000  0.24731  1
