CIF file written using JARVIS-Tools package.
data_ErCoSi3
_symmetry_space_group_name_H-M  'Cmmm'
_cell_length_a       10.6712
_cell_length_b       10.6712
_cell_length_c       3.94582
_cell_angle_alpha    90
_cell_angle_beta     90
_cell_angle_gamma    158.814

_symmetry_Int_Tables_number  65
_chemical_formula_structural  ErCoSi3
_chemical_formula_sum  Er2Co2Si6
_cell_volume  162.38971830635776
_cell_formula_units_Z  2
loop_
  _symmetry_equiv_pos_site_id
 _symmetry_equiv_pos_as_xyz
 1  'x, y, z'
loop_
 _atom_site_type_symbol
 _atom_site_label
 _atom_site_symmetry_multiplicity
 _atom_site_fract_x
 _atom_site_fract_y
 _atom_site_fract_z
 _atom_site_fract_occupancy
 Co  Co1  1  0.89054  0.10946  0.00000  1
 Co  Co2  1  0.10946  0.89054  0.00000  1
 Er  Er1  1  0.66898  0.33102  0.50000  1
 Er  Er2  1  0.33102  0.66898  0.50000  1
 Si  Si1  1  0.94353  0.05647  0.50000  1
 Si  Si2  1  0.05647  0.94353  0.50000  1
 Si  Si3  1  0.78422  0.21578  0.00000  1
 Si  Si4  1  0.21578  0.78422  0.00000  1
 Si  Si5  1  0.55657  0.44343  0.00000  1
 Si  Si6  1  0.44343  0.55657  0.00000  1
