CIF file written using JARVIS-Tools package.
data_Sm4Sn3
_symmetry_space_group_name_H-M  'I-43d'
_cell_length_a       8.17664
_cell_length_b       8.17665
_cell_length_c       8.17664
_cell_angle_alpha    109.471
_cell_angle_beta     109.471
_cell_angle_gamma    109.471

_symmetry_Int_Tables_number  220
_chemical_formula_structural  Sm4Sn3
_chemical_formula_sum  Sm8Sn6
_cell_volume  420.8261830369286
_cell_formula_units_Z  2
loop_
  _symmetry_equiv_pos_site_id
 _symmetry_equiv_pos_as_xyz
 1  'x, y, z'
loop_
 _atom_site_type_symbol
 _atom_site_label
 _atom_site_symmetry_multiplicity
 _atom_site_fract_x
 _atom_site_fract_y
 _atom_site_fract_z
 _atom_site_fract_occupancy
 Sm  Sm1  1  0.35988  0.50000  -0.00000  1
 Sm  Sm2  1  0.85988  0.50000  -0.00000  1
 Sm  Sm3  1  0.64012  0.64012  0.64012  1
 Sm  Sm4  1  0.50000  -0.00000  0.35988  1
 Sm  Sm5  1  0.14012  0.14012  0.14012  1
 Sm  Sm6  1  0.00000  0.85988  0.50000  1
 Sm  Sm7  1  0.50000  -0.00000  0.85988  1
 Sm  Sm8  1  0.00000  0.35988  0.50000  1
 Sn  Sn1  1  0.87500  0.12500  0.75000  1
 Sn  Sn2  1  0.75000  0.87500  0.12500  1
 Sn  Sn3  1  0.25000  0.62500  0.37500  1
 Sn  Sn4  1  0.62500  0.37500  0.25000  1
 Sn  Sn5  1  0.12500  0.75000  0.87500  1
 Sn  Sn6  1  0.37500  0.25000  0.62500  1
