CIF file written using JARVIS-Tools package.
data_Mn2CdN2
_symmetry_space_group_name_H-M  'C2/m'
_cell_length_a       3.16946
_cell_length_b       3.17903
_cell_length_c       8.02149
_cell_angle_alpha    90
_cell_angle_beta     71.1071
_cell_angle_gamma    120.1

_symmetry_Int_Tables_number  12
_chemical_formula_structural  Mn2CdN2
_chemical_formula_sum  Mn2CdN2
_cell_volume  64.84223719255644
_cell_formula_units_Z  1
loop_
  _symmetry_equiv_pos_site_id
 _symmetry_equiv_pos_as_xyz
 1  'x, y, z'
loop_
 _atom_site_type_symbol
 _atom_site_label
 _atom_site_symmetry_multiplicity
 _atom_site_fract_x
 _atom_site_fract_y
 _atom_site_fract_z
 _atom_site_fract_occupancy
 Cd  Cd1  1  0.00000  -0.00000  0.50000  1
 Mn  Mn1  1  0.54079  0.27039  0.11447  1
 Mn  Mn2  1  0.45921  0.72961  0.88553  1
 N  N1  1  0.83482  0.41741  0.84589  1
 N  N2  1  0.16518  0.58259  0.15411  1
