CIF file written using JARVIS-Tools package.
data_Mg2Sc
_symmetry_space_group_name_H-M  'C2/m'
_cell_length_a       6.11549
_cell_length_b       6.11549
_cell_length_c       7.60444
_cell_angle_alpha    75.5487
_cell_angle_beta     75.5487
_cell_angle_gamma    30.1719

_symmetry_Int_Tables_number  12
_chemical_formula_structural  Mg2Sc
_chemical_formula_sum  Mg4Sc2
_cell_volume  138.0813169247206
_cell_formula_units_Z  2
loop_
  _symmetry_equiv_pos_site_id
 _symmetry_equiv_pos_as_xyz
 1  'x, y, z'
loop_
 _atom_site_type_symbol
 _atom_site_label
 _atom_site_symmetry_multiplicity
 _atom_site_fract_x
 _atom_site_fract_y
 _atom_site_fract_z
 _atom_site_fract_occupancy
 Mg  Mg1  1  0.02922  0.02922  0.69396  1
 Mg  Mg2  1  0.30542  0.30542  0.64209  1
 Mg  Mg3  1  0.69458  0.69458  0.35791  1
 Mg  Mg4  1  0.97078  0.97078  0.30604  1
 Sc  Sc1  1  0.36153  0.36153  0.02609  1
 Sc  Sc2  1  0.63847  0.63847  0.97391  1
