CIF file written using JARVIS-Tools package.
data_LiCoSiO4
_symmetry_space_group_name_H-M  'Pc'
_cell_length_a       4.96279
_cell_length_b       5.50807
_cell_length_c       6.06116
_cell_angle_alpha    89.9839
_cell_angle_beta     89.6792
_cell_angle_gamma    89.9948

_symmetry_Int_Tables_number  7
_chemical_formula_structural  LiCoSiO4
_chemical_formula_sum  Li2Co2Si2O8
_cell_volume  165.6815742124859
_cell_formula_units_Z  2
loop_
  _symmetry_equiv_pos_site_id
 _symmetry_equiv_pos_as_xyz
 1  'x, y, z'
loop_
 _atom_site_type_symbol
 _atom_site_label
 _atom_site_symmetry_multiplicity
 _atom_site_fract_x
 _atom_site_fract_y
 _atom_site_fract_z
 _atom_site_fract_occupancy
 Co  Co1  1  0.52296  0.17165  -0.00009  1
 Co  Co2  1  0.02304  0.82831  0.50005  1
 Li  Li1  1  0.02307  0.33812  0.25384  1
 Li  Li2  1  0.52317  0.66187  0.75394  1
 O  O1  1  0.14976  0.11565  0.02373  1
 O  O2  1  0.68736  0.86410  0.98474  1
 O  O3  1  0.08956  0.67950  0.22637  1
 O  O4  1  0.63305  0.29171  0.27609  1
 O  O5  1  0.18734  0.13587  0.48469  1
 O  O6  1  0.64982  0.88437  0.52378  1
 O  O7  1  0.58953  0.32052  0.72618  1
 O  O8  1  0.13313  0.70829  0.77629  1
 Si  Si1  1  0.01838  0.84007  0.00312  1
 Si  Si2  1  0.51836  0.15995  0.50300  1
