CIF file written using JARVIS-Tools package.
data_CrFe2Te4
_symmetry_space_group_name_H-M  'P2/m'
_cell_length_a       4.06313
_cell_length_b       7.02638
_cell_length_c       5.41099
_cell_angle_alpha    89.6946
_cell_angle_beta     90.0004
_cell_angle_gamma    89.9981

_symmetry_Int_Tables_number  10
_chemical_formula_structural  CrFe2Te4
_chemical_formula_sum  CrFe2Te4
_cell_volume  154.47651679834064
_cell_formula_units_Z  1
loop_
  _symmetry_equiv_pos_site_id
 _symmetry_equiv_pos_as_xyz
 1  'x, y, z'
loop_
 _atom_site_type_symbol
 _atom_site_label
 _atom_site_symmetry_multiplicity
 _atom_site_fract_x
 _atom_site_fract_y
 _atom_site_fract_z
 _atom_site_fract_occupancy
 Cr  Cr1  1  0.75000  0.25000  0.50000  1
 Fe  Fe1  1  0.25000  0.75000  0.50000  1
 Fe  Fe2  1  0.25000  0.75000  -0.00000  1
 Te  Te1  1  0.74999  0.91004  0.74533  1
 Te  Te2  1  0.25000  0.41776  0.75321  1
 Te  Te3  1  0.25000  0.08224  0.24679  1
 Te  Te4  1  0.75001  0.58996  0.25467  1
