CIF file written using JARVIS-Tools package.
data_SrCdP2O7
_symmetry_space_group_name_H-M  'P2_1/c'
_cell_length_a       5.48003
_cell_length_b       8.58538
_cell_length_c       14.0741
_cell_angle_alpha    90
_cell_angle_beta     112.957
_cell_angle_gamma    90

_symmetry_Int_Tables_number  14
_chemical_formula_structural  SrCdP2O7
_chemical_formula_sum  Sr4Cd4P8O28
_cell_volume  609.7150444011414
_cell_formula_units_Z  4
loop_
  _symmetry_equiv_pos_site_id
 _symmetry_equiv_pos_as_xyz
 1  'x, y, z'
loop_
 _atom_site_type_symbol
 _atom_site_label
 _atom_site_symmetry_multiplicity
 _atom_site_fract_x
 _atom_site_fract_y
 _atom_site_fract_z
 _atom_site_fract_occupancy
 Cd  Cd1  1  0.22173  0.35832  0.90520  1
 Cd  Cd2  1  0.77827  0.85832  0.59480  1
 Cd  Cd3  1  0.77827  0.64168  0.09480  1
 Cd  Cd4  1  0.22173  0.14168  0.40520  1
 O  O1  1  0.01111  0.36054  0.34400  1
 O  O2  1  0.28287  0.55224  0.28502  1
 O  O3  1  0.98889  0.86054  0.15600  1
 O  O4  1  0.28287  0.94776  0.78502  1
 O  O5  1  0.88552  0.67162  0.95579  1
 O  O6  1  0.63509  0.29696  0.91149  1
 O  O7  1  0.36491  0.79696  0.58851  1
 O  O8  1  0.36491  0.70304  0.08851  1
 O  O9  1  0.63509  0.20304  0.41149  1
 O  O10  1  0.88552  0.82838  0.45579  1
 O  O11  1  0.81037  0.61283  0.26644  1
 O  O12  1  0.81037  0.88717  0.76644  1
 O  O13  1  0.11448  0.17162  0.54421  1
 O  O14  1  0.72257  0.38080  0.09406  1
 O  O15  1  0.27743  0.88080  0.40594  1
 O  O16  1  0.27743  0.61920  0.90594  1
 O  O17  1  0.72257  0.11920  0.59406  1
 O  O18  1  0.11448  0.32838  0.04421  1
 O  O19  1  0.18963  0.11283  0.23356  1
 O  O20  1  0.18963  0.38717  0.73356  1
 O  O21  1  0.01111  0.13946  0.84400  1
 O  O22  1  0.71713  0.44776  0.71498  1
 O  O23  1  0.81572  0.39493  0.55500  1
 O  O24  1  0.18428  0.89493  0.94500  1
 O  O25  1  0.18428  0.60507  0.44500  1
 O  O26  1  0.81572  0.10507  0.05500  1
 O  O27  1  0.71713  0.05224  0.21498  1
 O  O28  1  0.98889  0.63946  0.65600  1
 P  P1  1  0.92735  0.02987  0.17024  1
 P  P2  1  0.07265  0.97013  0.82976  1
 P  P3  1  0.92735  0.47013  0.67024  1
 P  P4  1  0.17337  0.71458  0.97567  1
 P  P5  1  0.17337  0.78542  0.47567  1
 P  P6  1  0.82663  0.21458  0.52433  1
 P  P7  1  0.82663  0.28542  0.02433  1
 P  P8  1  0.07265  0.52987  0.32976  1
 Sr  Sr1  1  0.51159  0.17442  0.72854  1
 Sr  Sr2  1  0.48841  0.67442  0.77146  1
 Sr  Sr3  1  0.48841  0.82558  0.27146  1
 Sr  Sr4  1  0.51159  0.32558  0.22854  1
