CIF file written using JARVIS-Tools package.
data_KBe2BO3F2
_symmetry_space_group_name_H-M  'R32'
_cell_length_a       6.63142
_cell_length_b       6.63142
_cell_length_c       6.63143
_cell_angle_alpha    39.2937
_cell_angle_beta     39.2937
_cell_angle_gamma    39.2937

_symmetry_Int_Tables_number  155
_chemical_formula_structural  KBe2BO3F2
_chemical_formula_sum  KBe2BO3F2
_cell_volume  105.24120309530264
_cell_formula_units_Z  1
loop_
  _symmetry_equiv_pos_site_id
 _symmetry_equiv_pos_as_xyz
 1  'x, y, z'
loop_
 _atom_site_type_symbol
 _atom_site_label
 _atom_site_symmetry_multiplicity
 _atom_site_fract_x
 _atom_site_fract_y
 _atom_site_fract_z
 _atom_site_fract_occupancy
 B  B1  1  0.50000  0.50000  0.50000  1
 Be  Be1  1  0.19798  0.19798  0.19798  1
 Be  Be2  1  0.80202  0.80202  0.80202  1
 F  F1  1  0.28199  0.28199  0.28199  1
 F  F2  1  0.71801  0.71801  0.71801  1
 K  K1  1  0.00000  0.00000  0.00000  1
 O  O1  1  0.50000  0.19113  0.80887  1
 O  O2  1  0.80887  0.50000  0.19113  1
 O  O3  1  0.19113  0.80887  0.50000  1
