CIF file written using JARVIS-Tools package.
data_Ti2Be17
_symmetry_space_group_name_H-M  'R-3m'
_cell_length_a       5.54815
_cell_length_b       5.54815
_cell_length_c       5.54815
_cell_angle_alpha    82.8276
_cell_angle_beta     82.8276
_cell_angle_gamma    82.8277

_symmetry_Int_Tables_number  166
_chemical_formula_structural  Ti2Be17
_chemical_formula_sum  Ti2Be7
_cell_volume  167.08170144549157
_cell_formula_units_Z  1
loop_
  _symmetry_equiv_pos_site_id
 _symmetry_equiv_pos_as_xyz
 1  'x, y, z'
loop_
 _atom_site_type_symbol
 _atom_site_label
 _atom_site_symmetry_multiplicity
 _atom_site_fract_x
 _atom_site_fract_y
 _atom_site_fract_z
 _atom_site_fract_occupancy
 Be  Be1  1  0.40116  0.40116  0.40116  1
 Be  Be2  1  0.59884  0.59884  0.59884  1
 Be  Be3  1  0.50000  0.50000  -0.00000  1
 Be  Be4  1  -0.00000  0.50000  0.50000  1
 Be  Be5  1  0.50000  -0.00000  0.50000  1
 Be  Be6  1  0.79507  0.50000  0.20493  1
 Be  Be7  1  0.20493  0.79507  0.50000  1
 Be  Be8  1  0.50000  0.20493  0.79507  1
 Be  Be9  1  0.20493  0.50000  0.79507  1
 Be  Be10  1  0.79507  0.20493  0.50000  1
 Be  Be11  1  0.15396  0.66040  0.15396  1
 Be  Be12  1  0.15396  0.15396  0.66040  1
 Be  Be13  1  0.66040  0.15396  0.15396  1
 Be  Be14  1  0.33960  0.84604  0.84604  1
 Be  Be15  1  0.84604  0.33960  0.84604  1
 Be  Be16  1  0.84604  0.84604  0.33960  1
 Be  Be17  1  0.50000  0.79507  0.20493  1
 Ti  Ti1  1  0.16387  0.16387  0.16387  1
 Ti  Ti2  1  0.83613  0.83613  0.83613  1
