CIF file written using JARVIS-Tools package.
data_Ba2PrSnO6
_symmetry_space_group_name_H-M  'R-3'
_cell_length_a       6.1517
_cell_length_b       6.1517
_cell_length_c       6.1517
_cell_angle_alpha    60.8885
_cell_angle_beta     60.8885
_cell_angle_gamma    60.8885

_symmetry_Int_Tables_number  148
_chemical_formula_structural  Ba2PrSnO6
_chemical_formula_sum  Ba2PrSnO6
_cell_volume  167.91249880426253
_cell_formula_units_Z  1
loop_
  _symmetry_equiv_pos_site_id
 _symmetry_equiv_pos_as_xyz
 1  'x, y, z'
loop_
 _atom_site_type_symbol
 _atom_site_label
 _atom_site_symmetry_multiplicity
 _atom_site_fract_x
 _atom_site_fract_y
 _atom_site_fract_z
 _atom_site_fract_occupancy
 Ba  Ba1  1  0.75247  0.75247  0.75247  1
 Ba  Ba2  1  0.24753  0.24753  0.24753  1
 O  O1  1  0.29306  0.17659  0.76924  1
 O  O2  1  0.17659  0.76924  0.29306  1
 O  O3  1  0.76924  0.29306  0.17659  1
 O  O4  1  0.70694  0.82341  0.23076  1
 O  O5  1  0.82341  0.23076  0.70694  1
 O  O6  1  0.23076  0.70694  0.82341  1
 Pr  Pr1  1  0.50000  0.50000  0.50000  1
 Sn  Sn1  1  0.00000  0.00000  0.00000  1
