CIF file written using JARVIS-Tools package.
data_Y2Zn17
_symmetry_space_group_name_H-M  'R-3m'
_cell_length_a       6.78993
_cell_length_b       6.78993
_cell_length_c       6.78993
_cell_angle_alpha    82.7419
_cell_angle_beta     82.742
_cell_angle_gamma    82.7419

_symmetry_Int_Tables_number  166
_chemical_formula_structural  Y2Zn17
_chemical_formula_sum  Y2Zn7
_cell_volume  306.0964711811543
_cell_formula_units_Z  1
loop_
  _symmetry_equiv_pos_site_id
 _symmetry_equiv_pos_as_xyz
 1  'x, y, z'
loop_
 _atom_site_type_symbol
 _atom_site_label
 _atom_site_symmetry_multiplicity
 _atom_site_fract_x
 _atom_site_fract_y
 _atom_site_fract_z
 _atom_site_fract_occupancy
 Y  Y1  1  0.33419  0.33419  0.33419  1
 Y  Y2  1  0.66581  0.66581  0.66581  1
 Zn  Zn1  1  0.35442  0.83755  0.35442  1
 Zn  Zn2  1  0.10015  0.10015  0.10015  1
 Zn  Zn3  1  0.89985  0.89985  0.89985  1
 Zn  Zn4  1  0.00000  0.00000  0.50000  1
 Zn  Zn5  1  0.50000  -0.00000  -0.00000  1
 Zn  Zn6  1  0.00000  0.50000  -0.00000  1
 Zn  Zn7  1  0.70270  0.29730  -0.00000  1
 Zn  Zn8  1  0.35442  0.35442  0.83755  1
 Zn  Zn9  1  0.29730  0.70270  0.00000  1
 Zn  Zn10  1  -0.00000  0.29730  0.70270  1
 Zn  Zn11  1  0.70270  0.00000  0.29730  1
 Zn  Zn12  1  0.64558  0.16245  0.64558  1
 Zn  Zn13  1  0.64558  0.64558  0.16245  1
 Zn  Zn14  1  0.16245  0.64558  0.64558  1
 Zn  Zn15  1  0.83755  0.35442  0.35442  1
 Zn  Zn16  1  0.00000  0.70270  0.29730  1
 Zn  Zn17  1  0.29730  -0.00000  0.70270  1
