CIF file written using JARVIS-Tools package.
data_KNa4Cl5
_symmetry_space_group_name_H-M  'C2/m'
_cell_length_a       7.03409
_cell_length_b       7.03409
_cell_length_c       9.996
_cell_angle_alpha    61.8785
_cell_angle_beta     61.8785
_cell_angle_gamma    33.4201

_symmetry_Int_Tables_number  12
_chemical_formula_structural  KNa4Cl5
_chemical_formula_sum  KNa4Cl5
_cell_volume  237.1351669166042
_cell_formula_units_Z  1
loop_
  _symmetry_equiv_pos_site_id
 _symmetry_equiv_pos_as_xyz
 1  'x, y, z'
loop_
 _atom_site_type_symbol
 _atom_site_label
 _atom_site_symmetry_multiplicity
 _atom_site_fract_x
 _atom_site_fract_y
 _atom_site_fract_z
 _atom_site_fract_occupancy
 Cl  Cl1  1  0.20563  0.20563  0.68570  1
 Cl  Cl2  1  0.79437  0.79437  0.31430  1
 Cl  Cl3  1  0.39012  0.39012  0.88825  1
 Cl  Cl4  1  -0.00000  -0.00000  0.50000  1
 Cl  Cl5  1  0.60988  0.60988  0.11175  1
 K  K1  1  0.00000  0.00000  0.00000  1
 Na  Na1  1  0.59668  0.59668  0.59866  1
 Na  Na2  1  0.20129  0.20129  0.20782  1
 Na  Na3  1  0.79871  0.79871  0.79218  1
 Na  Na4  1  0.40332  0.40332  0.40134  1
