CIF file written using JARVIS-Tools package.
data_CaLaSi4
_symmetry_space_group_name_H-M  'I-4m2'
_cell_length_a       7.41116
_cell_length_b       7.41116
_cell_length_c       7.41116
_cell_angle_alpha    145.634
_cell_angle_beta     145.634
_cell_angle_gamma    49.3905

_symmetry_Int_Tables_number  119
_chemical_formula_structural  CaLaSi4
_chemical_formula_sum  CaLaSi4
_cell_volume  129.10863378047583
_cell_formula_units_Z  1
loop_
  _symmetry_equiv_pos_site_id
 _symmetry_equiv_pos_as_xyz
 1  'x, y, z'
loop_
 _atom_site_type_symbol
 _atom_site_label
 _atom_site_symmetry_multiplicity
 _atom_site_fract_x
 _atom_site_fract_y
 _atom_site_fract_z
 _atom_site_fract_occupancy
 Ca  Ca1  1  0.25000  0.75000  0.50000  1
 La  La1  1  0.00000  0.00000  0.00000  1
 Si  Si1  1  0.66421  0.16421  0.50000  1
 Si  Si2  1  0.58618  0.58618  0.00000  1
 Si  Si3  1  0.83579  0.33579  0.50000  1
 Si  Si4  1  0.41382  0.41382  -0.00000  1
