CIF file written using JARVIS-Tools package.
data_CeGaAg
_symmetry_space_group_name_H-M  'C2/m'
_cell_length_a       5.76176
_cell_length_b       5.76177
_cell_length_c       7.23351
_cell_angle_alpha    53.0217
_cell_angle_beta     53.0216
_cell_angle_gamma    48.0037

_symmetry_Int_Tables_number  12
_chemical_formula_structural  CeGaAg
_chemical_formula_sum  Ce2Ga2Ag2
_cell_volume  134.31929431686345
_cell_formula_units_Z  2
loop_
  _symmetry_equiv_pos_site_id
 _symmetry_equiv_pos_as_xyz
 1  'x, y, z'
loop_
 _atom_site_type_symbol
 _atom_site_label
 _atom_site_symmetry_multiplicity
 _atom_site_fract_x
 _atom_site_fract_y
 _atom_site_fract_z
 _atom_site_fract_occupancy
 Ag  Ag1  1  0.17456  0.17456  0.28268  1
 Ag  Ag2  1  0.82544  0.82544  0.71732  1
 Ce  Ce1  1  0.52630  0.52630  0.71066  1
 Ce  Ce2  1  0.47370  0.47370  0.28934  1
 Ga  Ga1  1  0.84199  0.84199  0.11872  1
 Ga  Ga2  1  0.15801  0.15801  0.88128  1
