CIF file written using JARVIS-Tools package.
data_VCrB4
_symmetry_space_group_name_H-M  'P6/mmm'
_cell_length_a       2.98625
_cell_length_b       2.98625
_cell_length_c       5.98789
_cell_angle_alpha    90
_cell_angle_beta     90
_cell_angle_gamma    120

_symmetry_Int_Tables_number  191
_chemical_formula_structural  VCrB4
_chemical_formula_sum  VCrB4
_cell_volume  46.24412715483076
_cell_formula_units_Z  1
loop_
  _symmetry_equiv_pos_site_id
 _symmetry_equiv_pos_as_xyz
 1  'x, y, z'
loop_
 _atom_site_type_symbol
 _atom_site_label
 _atom_site_symmetry_multiplicity
 _atom_site_fract_x
 _atom_site_fract_y
 _atom_site_fract_z
 _atom_site_fract_occupancy
 B  B1  1  0.66667  0.33333  0.75288  1
 B  B2  1  0.66667  0.33333  0.24712  1
 B  B3  1  0.33333  0.66667  0.75288  1
 B  B4  1  0.33333  0.66667  0.24712  1
 Cr  Cr1  1  0.00000  0.00000  0.00000  1
 V  V1  1  0.00000  0.00000  0.50000  1
