CIF file written using JARVIS-Tools package.
data_Ag2F
_symmetry_space_group_name_H-M  'P-3m1'
_cell_length_a       3.00828
_cell_length_b       3.00828
_cell_length_c       5.76874
_cell_angle_alpha    90
_cell_angle_beta     90
_cell_angle_gamma    120

_symmetry_Int_Tables_number  164
_chemical_formula_structural  Ag2F
_chemical_formula_sum  Ag2F
_cell_volume  45.211646926302436
_cell_formula_units_Z  1
loop_
  _symmetry_equiv_pos_site_id
 _symmetry_equiv_pos_as_xyz
 1  'x, y, z'
loop_
 _atom_site_type_symbol
 _atom_site_label
 _atom_site_symmetry_multiplicity
 _atom_site_fract_x
 _atom_site_fract_y
 _atom_site_fract_z
 _atom_site_fract_occupancy
 Ag  Ag1  1  0.33333  0.66667  0.69230  1
 Ag  Ag2  1  0.66667  0.33333  0.30770  1
 F  F1  1  0.00000  0.00000  0.00000  1
