CIF file written using JARVIS-Tools package.
data_MgSnB2O6
_symmetry_space_group_name_H-M  'R-3'
_cell_length_a       5.70052
_cell_length_b       5.70052
_cell_length_c       5.70051
_cell_angle_alpha    49.3226
_cell_angle_beta     49.3225
_cell_angle_gamma    49.3226

_symmetry_Int_Tables_number  148
_chemical_formula_structural  MgSnB2O6
_chemical_formula_sum  MgSnB2O6
_cell_volume  97.89830912812981
_cell_formula_units_Z  1
loop_
  _symmetry_equiv_pos_site_id
 _symmetry_equiv_pos_as_xyz
 1  'x, y, z'
loop_
 _atom_site_type_symbol
 _atom_site_label
 _atom_site_symmetry_multiplicity
 _atom_site_fract_x
 _atom_site_fract_y
 _atom_site_fract_z
 _atom_site_fract_occupancy
 B  B1  1  0.75160  0.75160  0.75160  1
 B  B2  1  0.24840  0.24840  0.24840  1
 Mg  Mg1  1  0.00000  0.00000  0.00000  1
 O  O1  1  0.75091  0.46024  0.04227  1
 O  O2  1  0.04227  0.75091  0.46024  1
 O  O3  1  0.53976  0.95773  0.24909  1
 O  O4  1  0.24909  0.53976  0.95773  1
 O  O5  1  0.95773  0.24909  0.53976  1
 O  O6  1  0.46024  0.04227  0.75091  1
 Sn  Sn1  1  0.50000  0.50000  0.50000  1
