CIF file written using JARVIS-Tools package.
data_Sc2Al3Ru
_symmetry_space_group_name_H-M  'P6_3/mmc'
_cell_length_a       5.30383
_cell_length_b       5.30383
_cell_length_c       8.53724
_cell_angle_alpha    90
_cell_angle_beta     90
_cell_angle_gamma    120

_symmetry_Int_Tables_number  194
_chemical_formula_structural  Sc2Al3Ru
_chemical_formula_sum  Sc4Al6Ru2
_cell_volume  207.9827576776535
_cell_formula_units_Z  2
loop_
  _symmetry_equiv_pos_site_id
 _symmetry_equiv_pos_as_xyz
 1  'x, y, z'
loop_
 _atom_site_type_symbol
 _atom_site_label
 _atom_site_symmetry_multiplicity
 _atom_site_fract_x
 _atom_site_fract_y
 _atom_site_fract_z
 _atom_site_fract_occupancy
 Al  Al1  1  0.33096  0.16548  0.75000  1
 Al  Al2  1  0.16548  0.83452  0.25000  1
 Al  Al3  1  0.16548  0.33096  0.25000  1
 Al  Al4  1  0.83452  0.66904  0.75000  1
 Al  Al5  1  0.83452  0.16548  0.75000  1
 Al  Al6  1  0.66904  0.83452  0.25000  1
 Ru  Ru1  1  0.00000  0.00000  0.50000  1
 Ru  Ru2  1  0.00000  0.00000  0.00000  1
 Sc  Sc1  1  0.33333  0.66667  0.94533  1
 Sc  Sc2  1  0.66667  0.33333  0.44533  1
 Sc  Sc3  1  0.33333  0.66667  0.55467  1
 Sc  Sc4  1  0.66667  0.33333  0.05467  1
