CIF file written using JARVIS-Tools package.
data_La2ScSi2
_symmetry_space_group_name_H-M  'P4/mbm'
_cell_length_a       7.45577
_cell_length_b       7.45577
_cell_length_c       4.55822
_cell_angle_alpha    90
_cell_angle_beta     90
_cell_angle_gamma    90

_symmetry_Int_Tables_number  127
_chemical_formula_structural  La2ScSi2
_chemical_formula_sum  La4Sc2Si4
_cell_volume  253.38472951236747
_cell_formula_units_Z  2
loop_
  _symmetry_equiv_pos_site_id
 _symmetry_equiv_pos_as_xyz
 1  'x, y, z'
loop_
 _atom_site_type_symbol
 _atom_site_label
 _atom_site_symmetry_multiplicity
 _atom_site_fract_x
 _atom_site_fract_y
 _atom_site_fract_z
 _atom_site_fract_occupancy
 La  La1  1  0.67849  0.17849  0.50000  1
 La  La2  1  0.32151  0.82151  0.50000  1
 La  La3  1  0.17849  0.32151  0.50000  1
 La  La4  1  0.82151  0.67849  0.50000  1
 Sc  Sc1  1  0.00000  0.00000  0.00000  1
 Sc  Sc2  1  0.50000  0.50000  0.00000  1
 Si  Si1  1  0.11803  0.61803  0.00000  1
 Si  Si2  1  0.88197  0.38197  0.00000  1
 Si  Si3  1  0.61803  0.88197  0.00000  1
 Si  Si4  1  0.38197  0.11803  0.00000  1
