CIF file written using JARVIS-Tools package.
data_Sm3ErS4
_symmetry_space_group_name_H-M  'Pmmm'
_cell_length_a       3.95902
_cell_length_b       5.61378
_cell_length_c       7.95691
_cell_angle_alpha    90
_cell_angle_beta     90
_cell_angle_gamma    90

_symmetry_Int_Tables_number  47
_chemical_formula_structural  Sm3ErS4
_chemical_formula_sum  Sm3ErS4
_cell_volume  176.84286113688424
_cell_formula_units_Z  1
loop_
  _symmetry_equiv_pos_site_id
 _symmetry_equiv_pos_as_xyz
 1  'x, y, z'
loop_
 _atom_site_type_symbol
 _atom_site_label
 _atom_site_symmetry_multiplicity
 _atom_site_fract_x
 _atom_site_fract_y
 _atom_site_fract_z
 _atom_site_fract_occupancy
 Er  Er1  1  0.00000  0.00000  0.00000  1
 S  S1  1  0.00000  0.50000  0.50000  1
 S  S2  1  0.50000  0.00000  0.76046  1
 S  S3  1  0.00000  0.50000  0.00000  1
 S  S4  1  0.50000  0.00000  0.23954  1
 Sm  Sm1  1  0.50000  0.50000  0.25216  1
 Sm  Sm2  1  0.00000  0.00000  0.50000  1
 Sm  Sm3  1  0.50000  0.50000  0.74784  1
