CIF file written using JARVIS-Tools package.
data_MnZn3S4
_symmetry_space_group_name_H-M  'P3m1'
_cell_length_a       3.86068
_cell_length_b       3.86068
_cell_length_c       12.7171
_cell_angle_alpha    90
_cell_angle_beta     90
_cell_angle_gamma    120

_symmetry_Int_Tables_number  156
_chemical_formula_structural  MnZn3S4
_chemical_formula_sum  MnZn3S4
_cell_volume  164.15188577292778
_cell_formula_units_Z  1
loop_
  _symmetry_equiv_pos_site_id
 _symmetry_equiv_pos_as_xyz
 1  'x, y, z'
loop_
 _atom_site_type_symbol
 _atom_site_label
 _atom_site_symmetry_multiplicity
 _atom_site_fract_x
 _atom_site_fract_y
 _atom_site_fract_z
 _atom_site_fract_occupancy
 Mn  Mn1  1  0.00000  0.00000  0.24757  1
 S  S1  1  0.00000  0.00000  0.05928  1
 S  S2  1  0.00000  0.00000  0.56414  1
 S  S3  1  0.33333  0.66667  0.31749  1
 S  S4  1  0.33333  0.66667  0.81117  1
 Zn  Zn1  1  0.00000  0.00000  0.74942  1
 Zn  Zn2  1  0.33333  0.66667  0.99638  1
 Zn  Zn3  1  0.33333  0.66667  0.50257  1
