CIF file written using JARVIS-Tools package.
data_MnZnN2
_symmetry_space_group_name_H-M  'I-42d'
_cell_length_a       5.41289
_cell_length_b       4.46435
_cell_length_c       8.79413
_cell_angle_alpha    90
_cell_angle_beta     144.325
_cell_angle_gamma    114.355

_symmetry_Int_Tables_number  122
_chemical_formula_structural  MnZnN2
_chemical_formula_sum  Mn2Zn2N4
_cell_volume  87.63514611178087
_cell_formula_units_Z  2
loop_
  _symmetry_equiv_pos_site_id
 _symmetry_equiv_pos_as_xyz
 1  'x, y, z'
loop_
 _atom_site_type_symbol
 _atom_site_label
 _atom_site_symmetry_multiplicity
 _atom_site_fract_x
 _atom_site_fract_y
 _atom_site_fract_z
 _atom_site_fract_occupancy
 Mn  Mn1  1  0.00000  0.50000  0.75000  1
 Mn  Mn2  1  0.00000  0.00000  0.50000  1
 N  N1  1  0.50000  0.95673  0.12500  1
 N  N2  1  0.50000  0.04327  0.62500  1
 N  N3  1  0.58653  0.54327  0.41827  1
 N  N4  1  0.41347  0.45673  0.83173  1
 Zn  Zn1  1  0.00000  0.50000  0.25000  1
 Zn  Zn2  1  0.00000  0.00000  0.00000  1
