CIF file written using JARVIS-Tools package.
data_Li3VP2HO8
_symmetry_space_group_name_H-M  'P-1'
_cell_length_a       5.01842
_cell_length_b       5.06764
_cell_length_c       6.14689
_cell_angle_alpha    90.2266
_cell_angle_beta     89.9666
_cell_angle_gamma    113.448

_symmetry_Int_Tables_number  2
_chemical_formula_structural  Li3VP2HO8
_chemical_formula_sum  Li3VP2HO8
_cell_volume  143.41522523636615
_cell_formula_units_Z  1
loop_
  _symmetry_equiv_pos_site_id
 _symmetry_equiv_pos_as_xyz
 1  'x, y, z'
loop_
 _atom_site_type_symbol
 _atom_site_label
 _atom_site_symmetry_multiplicity
 _atom_site_fract_x
 _atom_site_fract_y
 _atom_site_fract_z
 _atom_site_fract_occupancy
 H  H1  1  -0.00000  0.50000  0.50000  1
 Li  Li1  1  0.61710  0.22373  0.75808  1
 Li  Li2  1  -0.00000  -0.00000  0.50000  1
 Li  Li3  1  0.38290  0.77627  0.24192  1
 O  O1  1  0.75524  0.25141  0.05090  1
 O  O2  1  0.77627  0.29684  0.46036  1
 O  O3  1  0.30567  0.19572  0.26198  1
 O  O4  1  0.27177  0.30744  0.76413  1
 O  O5  1  0.72823  0.69256  0.23587  1
 O  O6  1  0.69433  0.80428  0.73802  1
 O  O7  1  0.22373  0.70316  0.53964  1
 O  O8  1  0.24476  0.74859  0.94910  1
 P  P1  1  0.63866  0.36211  0.24558  1
 P  P2  1  0.36134  0.63789  0.75442  1
 V  V1  1  0.00000  0.00000  0.00000  1
