CIF file written using JARVIS-Tools package.
data_Ce3SbAs2
_symmetry_space_group_name_H-M  'Immm'
_cell_length_a       7.51775
_cell_length_b       7.51776
_cell_length_c       7.51775
_cell_angle_alpha    146.623
_cell_angle_beta     131.73
_cell_angle_gamma    59.9546

_symmetry_Int_Tables_number  71
_chemical_formula_structural  Ce3SbAs2
_chemical_formula_sum  Ce3SbAs2
_cell_volume  172.8617316083533
_cell_formula_units_Z  1
loop_
  _symmetry_equiv_pos_site_id
 _symmetry_equiv_pos_as_xyz
 1  'x, y, z'
loop_
 _atom_site_type_symbol
 _atom_site_label
 _atom_site_symmetry_multiplicity
 _atom_site_fract_x
 _atom_site_fract_y
 _atom_site_fract_z
 _atom_site_fract_occupancy
 As  As1  1  0.16375  0.66375  0.50000  1
 As  As2  1  0.83625  0.33625  0.50000  1
 Ce  Ce1  1  0.00000  0.00000  0.00000  1
 Ce  Ce2  1  0.67693  0.67693  0.00000  1
 Ce  Ce3  1  0.32307  0.32307  -0.00000  1
 Sb  Sb1  1  0.50000  -0.00000  0.50000  1
