CIF file written using JARVIS-Tools package.
data_LaUO4
_symmetry_space_group_name_H-M  'R-3m'
_cell_length_a       6.68916
_cell_length_b       6.68916
_cell_length_c       6.68915
_cell_angle_alpha    34.13
_cell_angle_beta     34.1299
_cell_angle_gamma    34.1299

_symmetry_Int_Tables_number  166
_chemical_formula_structural  LaUO4
_chemical_formula_sum  LaUO4
_cell_volume  84.00496354892384
_cell_formula_units_Z  1
loop_
  _symmetry_equiv_pos_site_id
 _symmetry_equiv_pos_as_xyz
 1  'x, y, z'
loop_
 _atom_site_type_symbol
 _atom_site_label
 _atom_site_symmetry_multiplicity
 _atom_site_fract_x
 _atom_site_fract_y
 _atom_site_fract_z
 _atom_site_fract_occupancy
 La  La1  1  0.00000  0.00000  0.00000  1
 O  O1  1  0.61413  0.61413  0.61413  1
 O  O2  1  0.13401  0.13401  0.13401  1
 O  O3  1  0.86599  0.86599  0.86599  1
 O  O4  1  0.38587  0.38587  0.38587  1
 U  U1  1  0.50000  0.50000  0.50000  1
