CIF file written using JARVIS-Tools package.
data_MnCoSi2
_symmetry_space_group_name_H-M  'P2_1'
_cell_length_a       4.44331
_cell_length_b       4.50127
_cell_length_c       4.50613
_cell_angle_alpha    89.4721
_cell_angle_beta     90
_cell_angle_gamma    90

_symmetry_Int_Tables_number  4
_chemical_formula_structural  MnCoSi2
_chemical_formula_sum  Mn2Co2Si4
_cell_volume  90.12122988471796
_cell_formula_units_Z  2
loop_
  _symmetry_equiv_pos_site_id
 _symmetry_equiv_pos_as_xyz
 1  'x, y, z'
loop_
 _atom_site_type_symbol
 _atom_site_label
 _atom_site_symmetry_multiplicity
 _atom_site_fract_x
 _atom_site_fract_y
 _atom_site_fract_z
 _atom_site_fract_occupancy
 Co  Co1  1  0.36513  0.38934  0.63526  1
 Co  Co2  1  0.86513  0.61066  0.36474  1
 Mn  Mn1  1  0.63622  0.89137  0.87107  1
 Mn  Mn2  1  0.13622  0.10863  0.12893  1
 Si  Si1  1  0.65847  0.08693  0.35018  1
 Si  Si2  1  0.15847  0.91307  0.64982  1
 Si  Si3  1  0.34018  0.58715  0.15724  1
 Si  Si4  1  0.84018  0.41285  0.84276  1
