CIF file written using JARVIS-Tools package.
data_Ba5P3ClO12
_symmetry_space_group_name_H-M  'P6_3/m'
_cell_length_a       10.3458
_cell_length_b       10.3458
_cell_length_c       7.7017
_cell_angle_alpha    90
_cell_angle_beta     90
_cell_angle_gamma    120

_symmetry_Int_Tables_number  176
_chemical_formula_structural  Ba5P3ClO12
_chemical_formula_sum  Ba0P6Cl2O24
_cell_volume  713.9096316414311
_cell_formula_units_Z  2
loop_
  _symmetry_equiv_pos_site_id
 _symmetry_equiv_pos_as_xyz
 1  'x, y, z'
loop_
 _atom_site_type_symbol
 _atom_site_label
 _atom_site_symmetry_multiplicity
 _atom_site_fract_x
 _atom_site_fract_y
 _atom_site_fract_z
 _atom_site_fract_occupancy
 Ba  Ba1  1  0.33333  0.66667  -0.00060  1
 Ba  Ba2  1  0.66667  0.33333  0.00060  1
 Ba  Ba3  1  0.74027  0.98403  0.75000  1
 Ba  Ba4  1  0.33333  0.66667  0.50060  1
 Ba  Ba5  1  0.66667  0.33333  0.49940  1
 Ba  Ba6  1  0.75624  0.74027  0.25000  1
 Ba  Ba7  1  0.24376  0.25973  0.75000  1
 Ba  Ba8  1  0.98403  0.24376  0.25000  1
 Ba  Ba9  1  0.01597  0.75624  0.75000  1
 Ba  Ba10  1  0.25973  0.01597  0.25000  1
 Cl  Cl1  1  0.00000  0.00000  0.00000  1
 Cl  Cl2  1  0.00000  0.00000  0.50000  1
 O  O1  1  0.64397  0.91384  0.08603  1
 O  O2  1  0.86290  0.52288  0.25000  1
 O  O3  1  0.08616  0.73014  0.08603  1
 O  O4  1  0.34002  0.86290  0.75000  1
 O  O5  1  0.91384  0.26986  0.58603  1
 O  O6  1  0.88358  0.46411  0.75000  1
 O  O7  1  0.35603  0.08616  0.91397  1
 O  O8  1  0.64397  0.91384  0.41397  1
 O  O9  1  0.13710  0.47712  0.75000  1
 O  O10  1  0.46411  0.58053  0.25000  1
 O  O11  1  0.26986  0.35603  0.08603  1
 O  O12  1  0.35603  0.08616  0.58603  1
 O  O13  1  0.47712  0.34002  0.25000  1
 O  O14  1  0.11642  0.53589  0.25000  1
 O  O15  1  0.91384  0.26986  0.91397  1
 O  O16  1  0.73014  0.64397  0.58603  1
 O  O17  1  0.26986  0.35603  0.41397  1
 O  O18  1  0.52288  0.65998  0.75000  1
 O  O19  1  0.58053  0.11642  0.75000  1
 O  O20  1  0.53589  0.41947  0.75000  1
 O  O21  1  0.08616  0.73014  0.41397  1
 O  O22  1  0.73014  0.64397  0.91397  1
 O  O23  1  0.41947  0.88358  0.25000  1
 O  O24  1  0.65998  0.13710  0.25000  1
 P  P1  1  0.03521  0.62874  0.25000  1
 P  P2  1  0.62874  0.59353  0.75000  1
 P  P3  1  0.96479  0.37126  0.75000  1
 P  P4  1  0.59353  0.96479  0.25000  1
 P  P5  1  0.37126  0.40647  0.25000  1
 P  P6  1  0.40647  0.03521  0.75000  1
