CIF file written using JARVIS-Tools package.
data_GeSbTe3
_symmetry_space_group_name_H-M  'R3m'
_cell_length_a       10.4931
_cell_length_b       10.4931
_cell_length_c       10.4931
_cell_angle_alpha    22.9997
_cell_angle_beta     22.9997
_cell_angle_gamma    22.9997

_symmetry_Int_Tables_number  160
_chemical_formula_structural  GeSbTe3
_chemical_formula_sum  GeSbTe3
_cell_volume  154.80258932534713
_cell_formula_units_Z  1
loop_
  _symmetry_equiv_pos_site_id
 _symmetry_equiv_pos_as_xyz
 1  'x, y, z'
loop_
 _atom_site_type_symbol
 _atom_site_label
 _atom_site_symmetry_multiplicity
 _atom_site_fract_x
 _atom_site_fract_y
 _atom_site_fract_z
 _atom_site_fract_occupancy
 Ge  Ge1  1  0.40163  0.40163  0.40163  1
 Sb  Sb1  1  0.60325  0.60325  0.60325  1
 Te  Te1  1  0.00089  0.00089  0.00089  1
 Te  Te2  1  0.20981  0.20981  0.20981  1
 Te  Te3  1  0.78441  0.78441  0.78441  1
