CIF file written using JARVIS-Tools package.
data_Dy2CdCu2
_symmetry_space_group_name_H-M  'P4/mbm'
_cell_length_a       7.50745
_cell_length_b       7.50745
_cell_length_c       3.6765
_cell_angle_alpha    90
_cell_angle_beta     90
_cell_angle_gamma    90

_symmetry_Int_Tables_number  127
_chemical_formula_structural  Dy2CdCu2
_chemical_formula_sum  Dy4Cd2Cu4
_cell_volume  207.21397320897472
_cell_formula_units_Z  2
loop_
  _symmetry_equiv_pos_site_id
 _symmetry_equiv_pos_as_xyz
 1  'x, y, z'
loop_
 _atom_site_type_symbol
 _atom_site_label
 _atom_site_symmetry_multiplicity
 _atom_site_fract_x
 _atom_site_fract_y
 _atom_site_fract_z
 _atom_site_fract_occupancy
 Cd  Cd1  1  0.00000  0.00000  0.00000  1
 Cd  Cd2  1  0.50000  0.50000  0.00000  1
 Cu  Cu1  1  0.12045  0.62045  0.00000  1
 Cu  Cu2  1  0.87955  0.37955  0.00000  1
 Cu  Cu3  1  0.62045  0.87955  0.00000  1
 Cu  Cu4  1  0.37955  0.12045  0.00000  1
 Dy  Dy1  1  0.67383  0.17383  0.50000  1
 Dy  Dy2  1  0.32617  0.82617  0.50000  1
 Dy  Dy3  1  0.17383  0.32617  0.50000  1
 Dy  Dy4  1  0.82617  0.67383  0.50000  1
