CIF file written using JARVIS-Tools package.
data_Sm2MgPd2
_symmetry_space_group_name_H-M  'P4/mbm'
_cell_length_a       7.68355
_cell_length_b       7.68355
_cell_length_c       3.92737
_cell_angle_alpha    90
_cell_angle_beta     90
_cell_angle_gamma    90

_symmetry_Int_Tables_number  127
_chemical_formula_structural  Sm2MgPd2
_chemical_formula_sum  Sm4Mg2Pd4
_cell_volume  231.8600025304746
_cell_formula_units_Z  2
loop_
  _symmetry_equiv_pos_site_id
 _symmetry_equiv_pos_as_xyz
 1  'x, y, z'
loop_
 _atom_site_type_symbol
 _atom_site_label
 _atom_site_symmetry_multiplicity
 _atom_site_fract_x
 _atom_site_fract_y
 _atom_site_fract_z
 _atom_site_fract_occupancy
 Mg  Mg1  1  0.00000  0.00000  0.00000  1
 Mg  Mg2  1  0.50000  0.50000  0.00000  1
 Pd  Pd1  1  0.13204  0.63204  0.00000  1
 Pd  Pd2  1  0.86796  0.36796  0.00000  1
 Pd  Pd3  1  0.63204  0.86796  0.00000  1
 Pd  Pd4  1  0.36796  0.13204  0.00000  1
 Sm  Sm1  1  0.66975  0.16975  0.50000  1
 Sm  Sm2  1  0.33025  0.83025  0.50000  1
 Sm  Sm3  1  0.16975  0.33025  0.50000  1
 Sm  Sm4  1  0.83025  0.66975  0.50000  1
