CIF file written using JARVIS-Tools package.
data_ZnBi2B2O7
_symmetry_space_group_name_H-M  'Pba2'
_cell_length_a       4.94217
_cell_length_b       10.8961
_cell_length_c       11.0054
_cell_angle_alpha    90
_cell_angle_beta     90
_cell_angle_gamma    90

_symmetry_Int_Tables_number  32
_chemical_formula_structural  ZnBi2B2O7
_chemical_formula_sum  Zn4Bi8B8O28
_cell_volume  592.644194091347
_cell_formula_units_Z  4
loop_
  _symmetry_equiv_pos_site_id
 _symmetry_equiv_pos_as_xyz
 1  'x, y, z'
loop_
 _atom_site_type_symbol
 _atom_site_label
 _atom_site_symmetry_multiplicity
 _atom_site_fract_x
 _atom_site_fract_y
 _atom_site_fract_z
 _atom_site_fract_occupancy
 B  B1  1  0.12618  0.01382  0.62760  1
 B  B2  1  0.07811  0.88402  0.02157  1
 B  B3  1  0.12618  0.51382  0.87240  1
 B  B4  1  0.07811  0.38402  0.47843  1
 B  B5  1  0.12618  0.98618  0.37240  1
 B  B6  1  0.07811  0.11598  0.97843  1
 B  B7  1  0.07811  0.61598  0.52157  1
 B  B8  1  0.12618  0.48618  0.12760  1
 Bi  Bi1  1  0.57923  0.01271  0.18473  1
 Bi  Bi2  1  0.58302  0.82199  0.47207  1
 Bi  Bi3  1  0.57923  0.98729  0.81527  1
 Bi  Bi4  1  0.58302  0.67801  0.97207  1
 Bi  Bi5  1  0.57923  0.48729  0.68473  1
 Bi  Bi6  1  0.57923  0.51271  0.31527  1
 Bi  Bi7  1  0.58302  0.32199  0.02793  1
 Bi  Bi8  1  0.58302  0.17801  0.52793  1
 O  O1  1  0.24931  0.08783  0.29875  1
 O  O2  1  0.83038  0.51977  0.86048  1
 O  O3  1  0.21853  0.00000  0.50000  1
 O  O4  1  0.73815  0.30018  0.67185  1
 O  O5  1  0.92523  0.80311  0.08597  1
 O  O6  1  0.83038  0.48023  0.13952  1
 O  O7  1  0.33642  0.13427  0.01669  1
 O  O8  1  0.73815  0.19982  0.17185  1
 O  O9  1  0.26856  0.37179  0.17430  1
 O  O10  1  0.92523  0.69689  0.58597  1
 O  O11  1  0.92523  0.19689  0.91403  1
 O  O12  1  0.21853  0.50000  0.00000  1
 O  O13  1  0.95490  0.50000  0.50000  1
 O  O14  1  0.95490  0.00000  0.00000  1
 O  O15  1  0.26856  0.87179  0.32570  1
 O  O16  1  0.26856  0.62821  0.82570  1
 O  O17  1  0.73815  0.80018  0.82815  1
 O  O18  1  0.83038  0.01977  0.63952  1
 O  O19  1  0.24931  0.41217  0.79875  1
 O  O20  1  0.73815  0.69982  0.32815  1
 O  O21  1  0.33642  0.36573  0.51669  1
 O  O22  1  0.24931  0.91217  0.70125  1
 O  O23  1  0.24931  0.58783  0.20125  1
 O  O24  1  0.92523  0.30311  0.41403  1
 O  O25  1  0.33642  0.86573  0.98331  1
 O  O26  1  0.33642  0.63427  0.48331  1
 O  O27  1  0.26856  0.12821  0.67430  1
 O  O28  1  0.83038  0.98023  0.36048  1
 Zn  Zn1  1  0.06965  0.75884  0.74275  1
 Zn  Zn2  1  0.06965  0.25884  0.75725  1
 Zn  Zn3  1  0.06965  0.24116  0.25725  1
 Zn  Zn4  1  0.06965  0.74116  0.24275  1
