CIF file written using JARVIS-Tools package.
data_Li3Mg5
_symmetry_space_group_name_H-M  'Im-3m'
_cell_length_a       5.98432
_cell_length_b       5.98432
_cell_length_c       5.98432
_cell_angle_alpha    109.933
_cell_angle_beta     109.933
_cell_angle_gamma    108.552

_symmetry_Int_Tables_number  229
_chemical_formula_structural  Li3Mg5
_chemical_formula_sum  Li3Mg5
_cell_volume  164.94490345489714
_cell_formula_units_Z  1
loop_
  _symmetry_equiv_pos_site_id
 _symmetry_equiv_pos_as_xyz
 1  'x, y, z'
loop_
 _atom_site_type_symbol
 _atom_site_label
 _atom_site_symmetry_multiplicity
 _atom_site_fract_x
 _atom_site_fract_y
 _atom_site_fract_z
 _atom_site_fract_occupancy
 Li  Li1  1  0.50000  0.00000  0.50000  1
 Li  Li2  1  0.00000  0.50000  0.50000  1
 Li  Li3  1  0.50000  0.50000  -0.00000  1
 Mg  Mg1  1  0.50000  0.50000  0.50000  1
 Mg  Mg2  1  0.00000  0.00000  0.50000  1
 Mg  Mg3  1  0.50000  -0.00000  -0.00000  1
 Mg  Mg4  1  -0.00000  0.50000  -0.00000  1
 Mg  Mg5  1  0.00000  0.00000  0.00000  1
