CIF file written using JARVIS-Tools package.
data_YbP5
_symmetry_space_group_name_H-M  'P2_1/m'
_cell_length_a       4.66216
_cell_length_b       9.73585
_cell_length_c       5.4981
_cell_angle_alpha    90
_cell_angle_beta     106.022
_cell_angle_gamma    90

_symmetry_Int_Tables_number  11
_chemical_formula_structural  YbP5
_chemical_formula_sum  Yb2P0
_cell_volume  239.8646372017478
_cell_formula_units_Z  2
loop_
  _symmetry_equiv_pos_site_id
 _symmetry_equiv_pos_as_xyz
 1  'x, y, z'
loop_
 _atom_site_type_symbol
 _atom_site_label
 _atom_site_symmetry_multiplicity
 _atom_site_fract_x
 _atom_site_fract_y
 _atom_site_fract_z
 _atom_site_fract_occupancy
 P  P1  1  0.72049  0.25000  0.07244  1
 P  P2  1  0.27951  0.75000  0.92756  1
 P  P3  1  0.36580  0.40876  0.02346  1
 P  P4  1  0.63420  0.90876  0.97654  1
 P  P5  1  0.63420  0.59124  0.97654  1
 P  P6  1  0.36580  0.09124  0.02346  1
 P  P7  1  0.30517  0.43982  0.40880  1
 P  P8  1  0.69483  0.93982  0.59120  1
 P  P9  1  0.69483  0.56018  0.59120  1
 P  P10  1  0.30517  0.06018  0.40880  1
 Yb  Yb1  1  0.92450  0.25000  0.61671  1
 Yb  Yb2  1  0.07550  0.75000  0.38329  1
