CIF file written using JARVIS-Tools package.
data_MgNiF5
_symmetry_space_group_name_H-M  'P-1'
_cell_length_a       5.03587
_cell_length_b       5.20967
_cell_length_c       7.34878
_cell_angle_alpha    79.8455
_cell_angle_beta     71.5629
_cell_angle_gamma    109.955

_symmetry_Int_Tables_number  2
_chemical_formula_structural  MgNiF5
_chemical_formula_sum  Mg2Ni2F0
_cell_volume  162.95261172430733
_cell_formula_units_Z  2
loop_
  _symmetry_equiv_pos_site_id
 _symmetry_equiv_pos_as_xyz
 1  'x, y, z'
loop_
 _atom_site_type_symbol
 _atom_site_label
 _atom_site_symmetry_multiplicity
 _atom_site_fract_x
 _atom_site_fract_y
 _atom_site_fract_z
 _atom_site_fract_occupancy
 F  F1  1  0.62578  0.87576  0.25776  1
 F  F2  1  0.37055  0.11984  0.74400  1
 F  F3  1  0.48774  0.30558  0.35099  1
 F  F4  1  0.12059  0.74941  0.11998  1
 F  F5  1  0.26785  0.29023  0.04743  1
 F  F6  1  0.89212  0.24102  0.46385  1
 F  F7  1  0.72849  0.70535  -0.04566  1
 F  F8  1  0.10419  0.75454  0.53790  1
 F  F9  1  0.87576  0.24618  0.88175  1
 F  F10  1  0.50854  0.69000  0.65080  1
 Mg  Mg1  1  0.69960  0.47071  0.76215  1
 Mg  Mg2  1  0.29671  0.52488  0.23963  1
 Ni  Ni1  1  -0.00184  0.99780  0.00088  1
 Ni  Ni2  1  0.49815  -0.00221  0.50089  1
