CIF file written using JARVIS-Tools package.
data_MgNi5
_symmetry_space_group_name_H-M  'R32'
_cell_length_a       4.83929
_cell_length_b       4.8393
_cell_length_c       4.83929
_cell_angle_alpha    53.9986
_cell_angle_beta     53.9986
_cell_angle_gamma    53.9985

_symmetry_Int_Tables_number  155
_chemical_formula_structural  MgNi5
_chemical_formula_sum  MgNi5
_cell_volume  68.90305466493747
_cell_formula_units_Z  1
loop_
  _symmetry_equiv_pos_site_id
 _symmetry_equiv_pos_as_xyz
 1  'x, y, z'
loop_
 _atom_site_type_symbol
 _atom_site_label
 _atom_site_symmetry_multiplicity
 _atom_site_fract_x
 _atom_site_fract_y
 _atom_site_fract_z
 _atom_site_fract_occupancy
 Mg  Mg1  1  0.00000  0.00000  0.00000  1
 Ni  Ni1  1  0.82374  0.50000  0.17626  1
 Ni  Ni2  1  0.17626  0.82374  0.50000  1
 Ni  Ni3  1  0.50000  0.17626  0.82374  1
 Ni  Ni4  1  0.32992  0.32992  0.32992  1
 Ni  Ni5  1  0.67008  0.67008  0.67008  1
