CIF file written using JARVIS-Tools package.
data_Cu6OF11
_symmetry_space_group_name_H-M  'P1'
_cell_length_a       4.62192
_cell_length_b       5.44143
_cell_length_c       8.17384
_cell_angle_alpha    87.5027
_cell_angle_beta     88.0169
_cell_angle_gamma    89.2283

_symmetry_Int_Tables_number  1
_chemical_formula_structural  Cu6OF11
_chemical_formula_sum  Cu6OF
_cell_volume  205.23770399810763
_cell_formula_units_Z  1
loop_
  _symmetry_equiv_pos_site_id
 _symmetry_equiv_pos_as_xyz
 1  'x, y, z'
loop_
 _atom_site_type_symbol
 _atom_site_label
 _atom_site_symmetry_multiplicity
 _atom_site_fract_x
 _atom_site_fract_y
 _atom_site_fract_z
 _atom_site_fract_occupancy
 Cu  Cu1  1  0.00326  0.99895  -0.00057  1
 Cu  Cu2  1  0.52318  0.49688  0.98413  1
 Cu  Cu3  1  0.98303  0.34322  0.67411  1
 Cu  Cu4  1  0.50677  0.82018  0.66870  1
 Cu  Cu5  1  0.49538  0.16963  0.33568  1
 Cu  Cu6  1  0.00216  0.66591  0.33041  1
 F  F1  1  0.20310  0.29268  0.91385  1
 F  F2  1  0.20503  0.96223  0.25064  1
 F  F3  1  0.29976  0.80054  0.90621  1
 F  F4  1  0.28744  0.12638  0.58327  1
 F  F5  1  0.78931  0.04741  0.75669  1
 F  F6  1  0.30917  0.46402  0.22999  1
 F  F7  1  0.69698  0.87201  0.42779  1
 F  F8  1  0.19345  0.62330  0.57434  1
 F  F9  1  0.70418  0.19757  0.09268  1
 F  F10  1  0.79377  0.37389  0.41487  1
 F  F11  1  0.80715  0.70357  0.09254  1
 O  O1  1  0.69687  0.54163  0.76465  1
