CIF file written using JARVIS-Tools package.
data_LiOsN2
_symmetry_space_group_name_H-M  'I-42d'
_cell_length_a       5.64405
_cell_length_b       4.61903
_cell_length_c       9.206
_cell_angle_alpha    90
_cell_angle_beta     144.642
_cell_angle_gamma    114.154

_symmetry_Int_Tables_number  122
_chemical_formula_structural  LiOsN2
_chemical_formula_sum  Li2Os2N4
_cell_volume  98.20723262297373
_cell_formula_units_Z  2
loop_
  _symmetry_equiv_pos_site_id
 _symmetry_equiv_pos_as_xyz
 1  'x, y, z'
loop_
 _atom_site_type_symbol
 _atom_site_label
 _atom_site_symmetry_multiplicity
 _atom_site_fract_x
 _atom_site_fract_y
 _atom_site_fract_z
 _atom_site_fract_occupancy
 Li  Li1  1  0.00000  0.50000  0.75000  1
 Li  Li2  1  0.00000  0.00000  0.50000  1
 N  N1  1  0.50000  0.03808  0.12500  1
 N  N2  1  0.50000  0.96192  0.62500  1
 N  N3  1  0.42383  0.46192  0.33692  1
 N  N4  1  0.57617  0.53808  0.91308  1
 Os  Os1  1  0.00000  0.50000  0.25000  1
 Os  Os2  1  0.00000  0.00000  0.00000  1
