CIF file written using JARVIS-Tools package.
data_VFe2S4
_symmetry_space_group_name_H-M  'Cm'
_cell_length_a       6.07257
_cell_length_b       6.07258
_cell_length_c       5.67359
_cell_angle_alpha    65.7412
_cell_angle_beta     65.7413
_cell_angle_gamma    31.0722

_symmetry_Int_Tables_number  8
_chemical_formula_structural  VFe2S4
_chemical_formula_sum  VFe2S4
_cell_volume  97.6719008890588
_cell_formula_units_Z  1
loop_
  _symmetry_equiv_pos_site_id
 _symmetry_equiv_pos_as_xyz
 1  'x, y, z'
loop_
 _atom_site_type_symbol
 _atom_site_label
 _atom_site_symmetry_multiplicity
 _atom_site_fract_x
 _atom_site_fract_y
 _atom_site_fract_z
 _atom_site_fract_occupancy
 Fe  Fe1  1  0.01198  0.01198  0.99776  1
 Fe  Fe2  1  0.73274  0.73274  0.31732  1
 S  S1  1  0.63352  0.63352  0.02833  1
 S  S2  1  0.36030  0.36030  0.99033  1
 S  S3  1  0.10550  0.10550  0.55344  1
 S  S4  1  0.89415  0.89415  0.42900  1
 V  V1  1  0.26181  0.26181  0.68381  1
