CIF file written using JARVIS-Tools package.
data_Er3Mn3Ga2Ge
_symmetry_space_group_name_H-M  'P-62m'
_cell_length_a       6.97611
_cell_length_b       6.97611
_cell_length_c       3.97008
_cell_angle_alpha    90
_cell_angle_beta     90
_cell_angle_gamma    120

_symmetry_Int_Tables_number  189
_chemical_formula_structural  Er3Mn3Ga2Ge
_chemical_formula_sum  Er3Mn3Ga2Ge
_cell_volume  167.3234338402681
_cell_formula_units_Z  1
loop_
  _symmetry_equiv_pos_site_id
 _symmetry_equiv_pos_as_xyz
 1  'x, y, z'
loop_
 _atom_site_type_symbol
 _atom_site_label
 _atom_site_symmetry_multiplicity
 _atom_site_fract_x
 _atom_site_fract_y
 _atom_site_fract_z
 _atom_site_fract_occupancy
 Er  Er1  1  0.00000  0.41170  0.50000  1
 Er  Er2  1  0.58830  0.58830  0.50000  1
 Er  Er3  1  0.41170  0.00000  0.50000  1
 Ga  Ga1  1  0.33333  0.66667  0.00000  1
 Ga  Ga2  1  0.66667  0.33333  0.00000  1
 Ge  Ge1  1  0.00000  0.00000  0.50000  1
 Mn  Mn1  1  -0.00000  0.77318  0.00000  1
 Mn  Mn2  1  0.22682  0.22682  0.00000  1
 Mn  Mn3  1  0.77318  -0.00000  0.00000  1
