CIF file written using JARVIS-Tools package.
data_CdI2
_symmetry_space_group_name_H-M  'P3m1'
_cell_length_a       4.28728
_cell_length_b       4.28728
_cell_length_c       55.008
_cell_angle_alpha    90
_cell_angle_beta     90
_cell_angle_gamma    120

_symmetry_Int_Tables_number  156
_chemical_formula_structural  CdI2
_chemical_formula_sum  Cd8I6
_cell_volume  875.628038943142
_cell_formula_units_Z  8
loop_
  _symmetry_equiv_pos_site_id
 _symmetry_equiv_pos_as_xyz
 1  'x, y, z'
loop_
 _atom_site_type_symbol
 _atom_site_label
 _atom_site_symmetry_multiplicity
 _atom_site_fract_x
 _atom_site_fract_y
 _atom_site_fract_z
 _atom_site_fract_occupancy
 Cd  Cd1  1  0.66667  0.33333  0.90625  1
 Cd  Cd2  1  0.66667  0.33333  0.78125  1
 Cd  Cd3  1  0.00000  0.00000  0.28120  1
 Cd  Cd4  1  0.66667  0.33333  0.53126  1
 Cd  Cd5  1  0.66667  0.33333  0.40626  1
 Cd  Cd6  1  0.00000  0.00000  0.15626  1
 Cd  Cd7  1  0.66667  0.33333  0.03122  1
 Cd  Cd8  1  0.66667  0.33333  0.65626  1
 I  I1  1  0.33333  0.66667  0.81277  1
 I  I2  1  0.00000  0.00000  -0.00029  1
 I  I3  1  0.33333  0.66667  0.56278  1
 I  I4  1  0.33333  0.66667  0.68777  1
 I  I5  1  0.00000  0.00000  0.37475  1
 I  I6  1  0.33333  0.66667  0.06275  1
 I  I7  1  0.66667  0.33333  0.12476  1
 I  I8  1  0.33333  0.66667  0.31273  1
 I  I9  1  0.33333  0.66667  0.18778  1
 I  I10  1  0.00000  0.00000  0.62475  1
 I  I11  1  0.66667  0.33333  0.24970  1
 I  I12  1  0.33333  0.66667  0.93777  1
 I  I13  1  0.00000  0.00000  0.74974  1
 I  I14  1  0.00000  0.00000  0.87474  1
 I  I15  1  0.33333  0.66667  0.43778  1
 I  I16  1  0.00000  0.00000  0.49974  1
