CIF file written using JARVIS-Tools package.
data_TaBO4
_symmetry_space_group_name_H-M  'I4_1/amd'
_cell_length_a       5.21745
_cell_length_b       5.21744
_cell_length_c       5.21744
_cell_angle_alpha    106.335
_cell_angle_beta     106.334
_cell_angle_gamma    115.945

_symmetry_Int_Tables_number  141
_chemical_formula_structural  TaBO4
_chemical_formula_sum  Ta2B2O8
_cell_volume  108.27466815782034
_cell_formula_units_Z  2
loop_
  _symmetry_equiv_pos_site_id
 _symmetry_equiv_pos_as_xyz
 1  'x, y, z'
loop_
 _atom_site_type_symbol
 _atom_site_label
 _atom_site_symmetry_multiplicity
 _atom_site_fract_x
 _atom_site_fract_y
 _atom_site_fract_z
 _atom_site_fract_occupancy
 B  B1  1  0.62500  0.37500  0.25000  1
 B  B2  1  0.37500  0.62500  0.75000  1
 O  O1  1  0.79971  0.37115  0.07144  1
 O  O2  1  0.72827  0.79971  0.92856  1
 O  O3  1  0.27173  0.20029  0.07144  1
 O  O4  1  0.20029  0.62885  0.92856  1
 O  O5  1  0.20029  0.27173  0.57144  1
 O  O6  1  0.62885  0.20029  0.42856  1
 O  O7  1  0.79971  0.72827  0.42856  1
 O  O8  1  0.37115  0.79971  0.57144  1
 Ta  Ta1  1  0.12500  0.87500  0.25000  1
 Ta  Ta2  1  0.87500  0.12500  0.75000  1
