CIF file written using JARVIS-Tools package.
data_NaOsO3
_symmetry_space_group_name_H-M  'R-3c'
_cell_length_a       5.38903
_cell_length_b       5.38903
_cell_length_c       5.38903
_cell_angle_alpha    60.3729
_cell_angle_beta     60.3728
_cell_angle_gamma    60.3729

_symmetry_Int_Tables_number  167
_chemical_formula_structural  NaOsO3
_chemical_formula_sum  Na2Os2O6
_cell_volume  111.60005006178517
_cell_formula_units_Z  2
loop_
  _symmetry_equiv_pos_site_id
 _symmetry_equiv_pos_as_xyz
 1  'x, y, z'
loop_
 _atom_site_type_symbol
 _atom_site_label
 _atom_site_symmetry_multiplicity
 _atom_site_fract_x
 _atom_site_fract_y
 _atom_site_fract_z
 _atom_site_fract_occupancy
 Na  Na1  1  0.25569  0.25569  0.25569  1
 Na  Na2  1  0.75569  0.75569  0.75569  1
 O  O1  1  0.25571  0.83395  0.67745  1
 O  O2  1  0.83395  0.67745  0.25571  1
 O  O3  1  0.67745  0.25571  0.83395  1
 O  O4  1  0.17745  0.33395  0.75571  1
 O  O5  1  0.75571  0.17745  0.33395  1
 O  O6  1  0.33395  0.75571  0.17745  1
 Os  Os1  1  0.00570  0.00570  0.00570  1
 Os  Os2  1  0.50570  0.50570  0.50570  1
