CIF file written using JARVIS-Tools package.
data_NdCoGe3
_symmetry_space_group_name_H-M  'I4mm'
_cell_length_a       4.33653
_cell_length_b       4.33653
_cell_length_c       5.81655
_cell_angle_alpha    111.887
_cell_angle_beta     111.887
_cell_angle_gamma    90

_symmetry_Int_Tables_number  107
_chemical_formula_structural  NdCoGe3
_chemical_formula_sum  NdCoGe3
_cell_volume  92.9485041852342
_cell_formula_units_Z  1
loop_
  _symmetry_equiv_pos_site_id
 _symmetry_equiv_pos_as_xyz
 1  'x, y, z'
loop_
 _atom_site_type_symbol
 _atom_site_label
 _atom_site_symmetry_multiplicity
 _atom_site_fract_x
 _atom_site_fract_y
 _atom_site_fract_z
 _atom_site_fract_occupancy
 Co  Co1  1  0.00208  0.00208  0.00417  1
 Ge  Ge1  1  0.59359  0.09359  0.18717  1
 Ge  Ge2  1  0.77115  0.77115  0.54230  1
 Ge  Ge3  1  0.09359  0.59359  0.18717  1
 Nd  Nd1  1  0.33519  0.33519  0.67039  1
