CIF file written using JARVIS-Tools package.
data_Nd2Te4O11
_symmetry_space_group_name_H-M  'C2/c'
_cell_length_a       5.25378
_cell_length_b       6.88425
_cell_length_c       16.0344
_cell_angle_alpha    80.6087
_cell_angle_beta     80.5709
_cell_angle_gamma    67.5684

_symmetry_Int_Tables_number  15
_chemical_formula_structural  Nd2Te4O11
_chemical_formula_sum  Nd4Te8O22
_cell_volume  525.5831308614822
_cell_formula_units_Z  2
loop_
  _symmetry_equiv_pos_site_id
 _symmetry_equiv_pos_as_xyz
 1  'x, y, z'
loop_
 _atom_site_type_symbol
 _atom_site_label
 _atom_site_symmetry_multiplicity
 _atom_site_fract_x
 _atom_site_fract_y
 _atom_site_fract_z
 _atom_site_fract_occupancy
 Nd  Nd1  1  0.62477  0.19981  0.03710  1
 Nd  Nd2  1  0.13832  0.69981  0.53710  1
 Nd  Nd3  1  0.86168  0.30019  0.46290  1
 Nd  Nd4  1  0.37523  0.80019  0.96290  1
 O  O1  1  0.68664  0.12885  0.36952  1
 O  O2  1  0.19138  0.31122  0.54660  1
 O  O3  1  0.04920  0.18878  0.95340  1
 O  O4  1  0.43281  0.54843  0.39944  1
 O  O5  1  0.38068  0.95157  0.10056  1
 O  O6  1  0.56719  0.45157  0.60056  1
 O  O7  1  0.09095  0.37307  0.32684  1
 O  O8  1  0.18500  0.37115  0.13048  1
 O  O9  1  0.79086  0.12693  0.17316  1
 O  O10  1  0.90905  0.62693  0.67316  1
 O  O11  1  0.20914  0.87307  0.82684  1
 O  O12  1  0.13778  0.75000  0.25000  1
 O  O13  1  0.61932  0.04843  0.89944  1
 O  O14  1  0.31336  0.87115  0.63048  1
 O  O15  1  0.74688  0.02789  0.55736  1
 O  O16  1  0.81500  0.62885  0.86952  1
 O  O17  1  0.33213  0.47211  0.94264  1
 O  O18  1  0.80862  0.68878  0.45340  1
 O  O19  1  0.95080  0.81122  0.04660  1
 O  O20  1  0.66787  0.52789  0.05736  1
 O  O21  1  0.86222  0.25000  0.75000  1
 O  O22  1  0.25312  0.97211  0.44264  1
 Te  Te1  1  0.39281  0.45897  0.29652  1
 Te  Te2  1  0.60719  0.54103  0.70348  1
 Te  Te3  1  0.85169  0.95897  0.79652  1
 Te  Te4  1  0.14831  0.04103  0.20348  1
 Te  Te5  1  0.15178  0.38424  0.87065  1
 Te  Te6  1  0.40667  0.11576  0.62935  1
 Te  Te7  1  0.84822  0.61576  0.12935  1
 Te  Te8  1  0.59333  0.88424  0.37065  1
