CIF file written using JARVIS-Tools package.
data_MgIn2Se4
_symmetry_space_group_name_H-M  'Fd-3m'
_cell_length_a       8.06257
_cell_length_b       8.06257
_cell_length_c       8.06331
_cell_angle_alpha    59.9967
_cell_angle_beta     59.9969
_cell_angle_gamma    60.0061

_symmetry_Int_Tables_number  227
_chemical_formula_structural  MgIn2Se4
_chemical_formula_sum  Mg2In4Se8
_cell_volume  370.6339166731787
_cell_formula_units_Z  2
loop_
  _symmetry_equiv_pos_site_id
 _symmetry_equiv_pos_as_xyz
 1  'x, y, z'
loop_
 _atom_site_type_symbol
 _atom_site_label
 _atom_site_symmetry_multiplicity
 _atom_site_fract_x
 _atom_site_fract_y
 _atom_site_fract_z
 _atom_site_fract_occupancy
 In  In1  1  0.62500  0.62500  0.12500  1
 In  In2  1  0.62500  0.12500  0.62500  1
 In  In3  1  0.12500  0.62500  0.62500  1
 In  In4  1  0.62500  0.62500  0.62500  1
 Mg  Mg1  1  0.00000  -0.00000  -0.00000  1
 Mg  Mg2  1  0.25000  0.25000  0.25000  1
 Se  Se1  1  0.38163  0.38163  0.38171  1
 Se  Se2  1  0.85502  0.38171  0.38163  1
 Se  Se3  1  0.38172  0.85502  0.38163  1
 Se  Se4  1  0.38163  0.38163  0.85502  1
 Se  Se5  1  0.86828  0.39498  0.86837  1
 Se  Se6  1  0.86837  0.86837  0.39498  1
 Se  Se7  1  0.39498  0.86829  0.86837  1
 Se  Se8  1  0.86837  0.86837  0.86829  1
