CIF file written using JARVIS-Tools package.
data_Cr6C3N
_symmetry_space_group_name_H-M  'Amm2'
_cell_length_a       4.82533
_cell_length_b       4.82533
_cell_length_c       6.96938
_cell_angle_alpha    90
_cell_angle_beta     90
_cell_angle_gamma    146.54

_symmetry_Int_Tables_number  38
_chemical_formula_structural  Cr6C3N
_chemical_formula_sum  Cr6C3N
_cell_volume  89.47142042161369
_cell_formula_units_Z  1
loop_
  _symmetry_equiv_pos_site_id
 _symmetry_equiv_pos_as_xyz
 1  'x, y, z'
loop_
 _atom_site_type_symbol
 _atom_site_label
 _atom_site_symmetry_multiplicity
 _atom_site_fract_x
 _atom_site_fract_y
 _atom_site_fract_z
 _atom_site_fract_occupancy
 C  C1  1  0.50208  0.49792  0.25728  1
 C  C2  1  0.50208  0.49792  0.74272  1
 C  C3  1  0.24427  0.75573  0.00000  1
 Cr  Cr1  1  0.59696  0.40304  0.00000  1
 Cr  Cr2  1  0.38905  0.61095  0.50000  1
 Cr  Cr3  1  0.86323  0.13677  0.16920  1
 Cr  Cr4  1  0.14789  0.85211  0.31578  1
 Cr  Cr5  1  0.86323  0.13677  0.83080  1
 Cr  Cr6  1  0.14789  0.85211  0.68422  1
 N  N1  1  0.74334  0.25666  0.50000  1
