CIF file written using JARVIS-Tools package.
data_La2NiSn4
_symmetry_space_group_name_H-M  'Amm2'
_cell_length_a       9.2022
_cell_length_b       9.20221
_cell_length_c       4.54564
_cell_angle_alpha    90
_cell_angle_beta     90
_cell_angle_gamma    151.286

_symmetry_Int_Tables_number  38
_chemical_formula_structural  La2NiSn4
_chemical_formula_sum  La2NiSn4
_cell_volume  184.93492892865228
_cell_formula_units_Z  1
loop_
  _symmetry_equiv_pos_site_id
 _symmetry_equiv_pos_as_xyz
 1  'x, y, z'
loop_
 _atom_site_type_symbol
 _atom_site_label
 _atom_site_symmetry_multiplicity
 _atom_site_fract_x
 _atom_site_fract_y
 _atom_site_fract_z
 _atom_site_fract_occupancy
 La  La1  1  0.10839  0.89161  0.50000  1
 La  La2  1  0.89782  0.10218  0.00000  1
 Ni  Ni1  1  0.31376  0.68624  0.50000  1
 Sn  Sn1  1  0.45489  0.54511  0.50000  1
 Sn  Sn2  1  0.56067  0.43933  0.00000  1
 Sn  Sn3  1  0.74536  0.25464  0.50000  1
 Sn  Sn4  1  0.24640  0.75360  0.00000  1
