CIF file written using JARVIS-Tools package.
data_CoTe2Pd2
_symmetry_space_group_name_H-M  'Ibam'
_cell_length_a       5.26188
_cell_length_b       6.33139
_cell_length_c       6.96711
_cell_angle_alpha    117.025
_cell_angle_beta     112.186
_cell_angle_gamma    90

_symmetry_Int_Tables_number  72
_chemical_formula_structural  CoTe2Pd2
_chemical_formula_sum  Co2Te4Pd4
_cell_volume  187.2682850029897
_cell_formula_units_Z  2
loop_
  _symmetry_equiv_pos_site_id
 _symmetry_equiv_pos_as_xyz
 1  'x, y, z'
loop_
 _atom_site_type_symbol
 _atom_site_label
 _atom_site_symmetry_multiplicity
 _atom_site_fract_x
 _atom_site_fract_y
 _atom_site_fract_z
 _atom_site_fract_occupancy
 Co  Co1  1  0.75000  -0.00000  0.00000  1
 Co  Co2  1  0.25000  -0.00000  -0.00000  1
 Pd  Pd1  1  0.60566  0.47403  0.21131  1
 Pd  Pd2  1  0.89434  0.26272  0.78869  1
 Pd  Pd3  1  0.10566  0.73728  0.21131  1
 Pd  Pd4  1  0.39434  0.52597  0.78869  1
 Te  Te1  1  0.35597  0.07061  0.71195  1
 Te  Te2  1  0.64403  0.92939  0.28805  1
 Te  Te3  1  0.14403  0.35866  0.28805  1
 Te  Te4  1  0.85597  0.64134  0.71195  1
