CIF file written using JARVIS-Tools package.
data_Zn2BiSbO6
_symmetry_space_group_name_H-M  'P2_1/m'
_cell_length_a       5.51482
_cell_length_b       8.17227
_cell_length_c       5.59826
_cell_angle_alpha    90
_cell_angle_beta     92.1475
_cell_angle_gamma    90

_symmetry_Int_Tables_number  11
_chemical_formula_structural  Zn2BiSbO6
_chemical_formula_sum  Zn4Bi2Sb2O2
_cell_volume  252.12879401798733
_cell_formula_units_Z  2
loop_
  _symmetry_equiv_pos_site_id
 _symmetry_equiv_pos_as_xyz
 1  'x, y, z'
loop_
 _atom_site_type_symbol
 _atom_site_label
 _atom_site_symmetry_multiplicity
 _atom_site_fract_x
 _atom_site_fract_y
 _atom_site_fract_z
 _atom_site_fract_occupancy
 Bi  Bi1  1  -0.00000  0.50000  0.50000  1
 Bi  Bi2  1  -0.00000  0.00000  0.50000  1
 O  O1  1  0.86345  0.75000  0.63312  1
 O  O2  1  0.63827  0.42744  0.69168  1
 O  O3  1  0.38507  0.75000  0.86221  1
 O  O4  1  0.36173  0.92744  0.30832  1
 O  O5  1  0.81956  0.57363  0.12568  1
 O  O6  1  0.18044  0.07363  0.87432  1
 O  O7  1  0.81956  0.92637  0.12568  1
 O  O8  1  0.61493  0.25000  0.13779  1
 O  O9  1  0.13655  0.25000  0.36688  1
 O  O10  1  0.18044  0.42637  0.87432  1
 O  O11  1  0.36173  0.57256  0.30832  1
 O  O12  1  0.63827  0.07256  0.69168  1
 Sb  Sb1  1  0.50000  0.00000  0.00000  1
 Sb  Sb2  1  0.50000  0.50000  0.00000  1
 Zn  Zn1  1  0.98884  0.25000  0.03307  1
 Zn  Zn2  1  0.01116  0.75000  0.96693  1
 Zn  Zn3  1  0.47777  0.25000  0.49431  1
 Zn  Zn4  1  0.52223  0.75000  0.50569  1
