CIF file written using JARVIS-Tools package.
data_NaNb3Te4O16
_symmetry_space_group_name_H-M  'P2_1/m'
_cell_length_a       6.64616
_cell_length_b       7.5214
_cell_length_c       14.2607
_cell_angle_alpha    90
_cell_angle_beta     102.38
_cell_angle_gamma    90

_symmetry_Int_Tables_number  11
_chemical_formula_structural  NaNb3Te4O16
_chemical_formula_sum  Na2Nb6Te8O32
_cell_volume  696.2928361874682
_cell_formula_units_Z  2
loop_
  _symmetry_equiv_pos_site_id
 _symmetry_equiv_pos_as_xyz
 1  'x, y, z'
loop_
 _atom_site_type_symbol
 _atom_site_label
 _atom_site_symmetry_multiplicity
 _atom_site_fract_x
 _atom_site_fract_y
 _atom_site_fract_z
 _atom_site_fract_occupancy
 Na  Na1  1  0.50000  0.50000  0.50000  1
 Na  Na2  1  0.50000  0.00000  0.50000  1
 Nb  Nb1  1  0.07841  0.49898  0.27560  1
 Nb  Nb2  1  0.07841  0.00102  0.27560  1
 Nb  Nb3  1  0.92159  0.50102  0.72440  1
 Nb  Nb4  1  0.00000  0.50000  0.00000  1
 Nb  Nb5  1  0.92159  0.99898  0.72440  1
 Nb  Nb6  1  0.00000  0.00000  0.00000  1
 O  O1  1  0.87599  0.44185  0.57225  1
 O  O2  1  0.98754  0.75000  0.25960  1
 O  O3  1  0.77952  0.05478  0.28310  1
 O  O4  1  0.61694  0.43830  0.70351  1
 O  O5  1  0.05127  0.04136  0.14293  1
 O  O6  1  0.87599  0.05815  0.57225  1
 O  O7  1  0.22048  0.94522  0.71690  1
 O  O8  1  0.94873  0.54136  0.85707  1
 O  O9  1  0.38063  0.75000  0.87495  1
 O  O10  1  0.94873  0.95864  0.85707  1
 O  O11  1  0.69658  0.75000  0.41975  1
 O  O12  1  0.38306  0.93830  0.29649  1
 O  O13  1  0.14989  0.25000  0.31615  1
 O  O14  1  0.30342  0.25000  0.58025  1
 O  O15  1  0.77952  0.44522  0.28310  1
 O  O16  1  0.38306  0.56170  0.29649  1
 O  O17  1  0.01246  0.25000  0.74040  1
 O  O18  1  0.35642  0.75000  0.57806  1
 O  O19  1  0.61694  0.06170  0.70351  1
 O  O20  1  0.29865  0.05985  0.00297  1
 O  O21  1  0.70135  0.55985  0.99703  1
 O  O22  1  0.91462  0.25000  0.97647  1
 O  O23  1  0.29865  0.44015  0.00297  1
 O  O24  1  0.12401  0.94185  0.42775  1
 O  O25  1  0.70135  0.94015  0.99703  1
 O  O26  1  0.05127  0.45864  0.14293  1
 O  O27  1  0.08538  0.75000  0.02353  1
 O  O28  1  0.64358  0.25000  0.42194  1
 O  O29  1  0.85011  0.75000  0.68385  1
 O  O30  1  0.12401  0.55815  0.42775  1
 O  O31  1  0.61937  0.25000  0.12505  1
 O  O32  1  0.22048  0.55478  0.71690  1
 Te  Te1  1  0.58118  0.75000  0.28804  1
 Te  Te2  1  0.49464  0.25000  -0.00345  1
 Te  Te3  1  0.58638  0.25000  0.27650  1
 Te  Te4  1  0.05285  0.75000  0.50222  1
 Te  Te5  1  0.41362  0.75000  0.72350  1
 Te  Te6  1  0.50536  0.75000  0.00345  1
 Te  Te7  1  0.94715  0.25000  0.49778  1
 Te  Te8  1  0.41882  0.25000  0.71196  1
