CIF file written using JARVIS-Tools package.
data_Er3SiSe2O10F
_symmetry_space_group_name_H-M  'Pnna'
_cell_length_a       5.85345
_cell_length_b       10.2852
_cell_length_c       15.3936
_cell_angle_alpha    90
_cell_angle_beta     90
_cell_angle_gamma    90

_symmetry_Int_Tables_number  52
_chemical_formula_structural  Er3SiSe2O10F
_chemical_formula_sum  Er2Si4Se8O40F4
_cell_volume  926.7509886770329
_cell_formula_units_Z  4
loop_
  _symmetry_equiv_pos_site_id
 _symmetry_equiv_pos_as_xyz
 1  'x, y, z'
loop_
 _atom_site_type_symbol
 _atom_site_label
 _atom_site_symmetry_multiplicity
 _atom_site_fract_x
 _atom_site_fract_y
 _atom_site_fract_z
 _atom_site_fract_occupancy
 Er  Er1  1  0.92807  0.88656  0.65273  1
 Er  Er2  1  0.25000  0.12596  0.00000  1
 Er  Er3  1  0.57193  0.88656  0.34727  1
 Er  Er4  1  0.92807  0.61344  0.84727  1
 Er  Er5  1  0.75000  0.87404  0.00000  1
 Er  Er6  1  0.57193  0.61344  0.15273  1
 Er  Er7  1  0.07193  0.38656  0.15273  1
 Er  Er8  1  0.42807  0.11344  0.65273  1
 Er  Er9  1  0.75000  0.62596  0.50000  1
 Er  Er10  1  0.25000  0.37404  0.50000  1
 Er  Er11  1  0.07193  0.11344  0.34727  1
 Er  Er12  1  0.42807  0.38656  0.84727  1
 F  F1  1  0.93677  0.25000  0.25000  1
 F  F2  1  0.43677  0.75000  0.25000  1
 F  F3  1  0.56323  0.25000  0.75000  1
 F  F4  1  0.06323  0.75000  0.75000  1
 O  O1  1  0.52132  0.22639  0.52769  1
 O  O2  1  0.37954  0.46702  0.24518  1
 O  O3  1  0.97868  0.22639  0.47231  1
 O  O4  1  0.23006  0.94667  0.41105  1
 O  O5  1  0.47931  0.98650  0.91360  1
 O  O6  1  0.97931  0.01350  0.91360  1
 O  O7  1  0.23006  0.55333  0.08895  1
 O  O8  1  0.02132  0.77361  0.52769  1
 O  O9  1  0.37954  0.03298  0.25482  1
 O  O10  1  0.73006  0.44667  0.08895  1
 O  O11  1  0.02069  0.98650  0.08640  1
 O  O12  1  0.12046  0.46702  0.75482  1
 O  O13  1  0.47868  0.72639  0.02769  1
 O  O14  1  0.73006  0.05333  0.41105  1
 O  O15  1  0.47868  0.77361  0.47231  1
 O  O16  1  0.87954  0.96702  0.25482  1
 O  O17  1  0.52069  0.01350  0.08640  1
 O  O18  1  0.82165  0.78120  0.13889  1
 O  O19  1  0.97931  0.48650  0.58640  1
 O  O20  1  0.17835  0.21880  0.86111  1
 O  O21  1  0.87954  0.53298  0.24518  1
 O  O22  1  0.76994  0.05333  0.58895  1
 O  O23  1  0.62046  0.53298  0.75482  1
 O  O24  1  0.62046  0.96702  0.74518  1
 O  O25  1  0.67835  0.78120  0.86111  1
 O  O26  1  0.26994  0.55333  0.91105  1
 O  O27  1  0.32165  0.28120  0.36111  1
 O  O28  1  0.76994  0.44667  0.91105  1
 O  O29  1  0.97868  0.27361  0.02769  1
 O  O30  1  0.32165  0.21880  0.13889  1
 O  O31  1  0.52132  0.27361  0.97231  1
 O  O32  1  0.17835  0.28120  0.63889  1
 O  O33  1  0.02132  0.72639  0.97231  1
 O  O34  1  0.47931  0.51350  0.58640  1
 O  O35  1  0.52069  0.48650  0.41360  1
 O  O36  1  0.26994  0.94667  0.58895  1
 O  O37  1  0.12046  0.03298  0.74518  1
 O  O38  1  0.67835  0.71880  0.63889  1
 O  O39  1  0.02069  0.51350  0.41360  1
 O  O40  1  0.82165  0.71880  0.36111  1
 Se  Se1  1  0.46462  0.61630  0.67522  1
 Se  Se2  1  0.46462  0.88370  0.82478  1
 Se  Se3  1  0.53538  0.38370  0.32478  1
 Se  Se4  1  0.96462  0.38370  0.67522  1
 Se  Se5  1  0.03538  0.61630  0.32478  1
 Se  Se6  1  0.03538  0.88370  0.17522  1
 Se  Se7  1  0.53538  0.11630  0.17522  1
 Se  Se8  1  0.96462  0.11630  0.82478  1
 Si  Si1  1  0.75000  0.14265  0.50000  1
 Si  Si2  1  0.25000  0.85735  0.50000  1
 Si  Si3  1  0.75000  0.35735  0.00000  1
 Si  Si4  1  0.25000  0.64265  0.00000  1
