CIF file written using JARVIS-Tools package.
data_Th3Ge2
_symmetry_space_group_name_H-M  'P4/mbm'
_cell_length_a       8.02412
_cell_length_b       8.02412
_cell_length_c       4.16728
_cell_angle_alpha    90
_cell_angle_beta     90
_cell_angle_gamma    90

_symmetry_Int_Tables_number  127
_chemical_formula_structural  Th3Ge2
_chemical_formula_sum  Th6Ge4
_cell_volume  268.3167093961221
_cell_formula_units_Z  2
loop_
  _symmetry_equiv_pos_site_id
 _symmetry_equiv_pos_as_xyz
 1  'x, y, z'
loop_
 _atom_site_type_symbol
 _atom_site_label
 _atom_site_symmetry_multiplicity
 _atom_site_fract_x
 _atom_site_fract_y
 _atom_site_fract_z
 _atom_site_fract_occupancy
 Ge  Ge1  1  0.12258  0.62258  0.00000  1
 Ge  Ge2  1  0.62258  0.87742  0.00000  1
 Ge  Ge3  1  0.37742  0.12258  0.00000  1
 Ge  Ge4  1  0.87742  0.37742  0.00000  1
 Th  Th1  1  0.82404  0.67596  0.50000  1
 Th  Th2  1  0.32404  0.82404  0.50000  1
 Th  Th3  1  0.17596  0.32404  0.50000  1
 Th  Th4  1  0.67596  0.17596  0.50000  1
 Th  Th5  1  0.50000  0.50000  0.00000  1
 Th  Th6  1  0.00000  0.00000  0.00000  1
