CIF file written using JARVIS-Tools package.
data_LiSnPCO7
_symmetry_space_group_name_H-M  'P2_1/m'
_cell_length_a       5.00222
_cell_length_b       6.49784
_cell_length_c       8.65046
_cell_angle_alpha    90
_cell_angle_beta     95.6091
_cell_angle_gamma    90

_symmetry_Int_Tables_number  11
_chemical_formula_structural  LiSnPCO7
_chemical_formula_sum  Li2Sn2P2C2O4
_cell_volume  279.8247376395126
_cell_formula_units_Z  2
loop_
  _symmetry_equiv_pos_site_id
 _symmetry_equiv_pos_as_xyz
 1  'x, y, z'
loop_
 _atom_site_type_symbol
 _atom_site_label
 _atom_site_symmetry_multiplicity
 _atom_site_fract_x
 _atom_site_fract_y
 _atom_site_fract_z
 _atom_site_fract_occupancy
 C  C1  1  0.61869  0.75000  0.94954  1
 C  C2  1  0.38131  0.25000  0.05046  1
 Li  Li1  1  0.84343  0.25000  0.89641  1
 Li  Li2  1  0.15657  0.75000  0.10359  1
 O  O1  1  0.88247  0.75000  0.92722  1
 O  O2  1  0.46585  0.25000  0.92058  1
 O  O3  1  0.53415  0.75000  0.07942  1
 O  O4  1  0.82004  0.06625  0.69497  1
 O  O5  1  0.82004  0.43375  0.69497  1
 O  O6  1  0.46326  0.75000  0.81708  1
 O  O7  1  0.43749  0.25000  0.53452  1
 O  O8  1  0.56251  0.75000  0.46548  1
 O  O9  1  0.17996  0.56625  0.30503  1
 O  O10  1  0.11372  0.75000  0.56230  1
 O  O11  1  0.17996  0.93375  0.30503  1
 O  O12  1  0.53674  0.25000  0.18292  1
 O  O13  1  0.88628  0.25000  0.43770  1
 O  O14  1  0.11753  0.25000  0.07278  1
 P  P1  1  0.25749  0.75000  0.41518  1
 P  P2  1  0.74251  0.25000  0.58482  1
 Sn  Sn1  1  0.21691  0.25000  0.32204  1
 Sn  Sn2  1  0.78309  0.75000  0.67796  1
