CIF file written using JARVIS-Tools package.
data_YSeO3F
_symmetry_space_group_name_H-M  'P2_1/c'
_cell_length_a       6.63244
_cell_length_b       6.89924
_cell_length_c       7.19491
_cell_angle_alpha    90
_cell_angle_beta     99.2791
_cell_angle_gamma    90

_symmetry_Int_Tables_number  14
_chemical_formula_structural  YSeO3F
_chemical_formula_sum  Y4Se4O2F4
_cell_volume  324.921913193032
_cell_formula_units_Z  4
loop_
  _symmetry_equiv_pos_site_id
 _symmetry_equiv_pos_as_xyz
 1  'x, y, z'
loop_
 _atom_site_type_symbol
 _atom_site_label
 _atom_site_symmetry_multiplicity
 _atom_site_fract_x
 _atom_site_fract_y
 _atom_site_fract_z
 _atom_site_fract_occupancy
 F  F1  1  0.16972  0.11080  0.52296  1
 F  F2  1  0.83028  0.88920  0.47704  1
 F  F3  1  0.16972  0.38920  0.02296  1
 F  F4  1  0.83028  0.61080  0.97704  1
 O  O1  1  0.48723  0.18786  0.86243  1
 O  O2  1  0.17558  0.03480  0.14798  1
 O  O3  1  0.51277  0.68786  0.63757  1
 O  O4  1  0.82442  0.96520  0.85202  1
 O  O5  1  0.82281  0.19636  0.21690  1
 O  O6  1  0.17719  0.69636  0.28310  1
 O  O7  1  0.17558  0.46520  0.64798  1
 O  O8  1  0.82281  0.30364  0.71690  1
 O  O9  1  0.82442  0.53480  0.35202  1
 O  O10  1  0.17719  0.80364  0.78310  1
 O  O11  1  0.51277  0.81214  0.13757  1
 O  O12  1  0.48723  0.31214  0.36243  1
 Se  Se1  1  0.35543  0.61678  0.79112  1
 Se  Se2  1  0.64457  0.38322  0.20888  1
 Se  Se3  1  0.35543  0.88322  0.29112  1
 Se  Se4  1  0.64457  0.11678  0.70888  1
 Y  Y1  1  0.13930  0.13997  0.82373  1
 Y  Y2  1  0.86070  0.63997  0.67627  1
 Y  Y3  1  0.86070  0.86003  0.17627  1
 Y  Y4  1  0.13930  0.36003  0.32373  1
