CIF file written using JARVIS-Tools package.
data_TmGa3Ru
_symmetry_space_group_name_H-M  'Pm-3m'
_cell_length_a       6.37498
_cell_length_b       6.37498
_cell_length_c       6.37498
_cell_angle_alpha    90
_cell_angle_beta     90
_cell_angle_gamma    90

_symmetry_Int_Tables_number  221
_chemical_formula_structural  TmGa3Ru
_chemical_formula_sum  Tm3Ga9Ru3
_cell_volume  259.08122469981794
_cell_formula_units_Z  3
loop_
  _symmetry_equiv_pos_site_id
 _symmetry_equiv_pos_as_xyz
 1  'x, y, z'
loop_
 _atom_site_type_symbol
 _atom_site_label
 _atom_site_symmetry_multiplicity
 _atom_site_fract_x
 _atom_site_fract_y
 _atom_site_fract_z
 _atom_site_fract_occupancy
 Ga  Ga1  1  0.50000  0.50000  0.50000  1
 Ga  Ga2  1  0.21287  0.21287  0.21287  1
 Ga  Ga3  1  0.21287  0.78713  0.21287  1
 Ga  Ga4  1  0.21287  0.21287  0.78713  1
 Ga  Ga5  1  0.78713  0.21287  0.21287  1
 Ga  Ga6  1  0.78713  0.78713  0.21287  1
 Ga  Ga7  1  0.21287  0.78713  0.78713  1
 Ga  Ga8  1  0.78713  0.21287  0.78713  1
 Ga  Ga9  1  0.78713  0.78713  0.78713  1
 Ru  Ru1  1  0.50000  0.00000  0.00000  1
 Ru  Ru2  1  0.00000  0.00000  0.50000  1
 Ru  Ru3  1  0.00000  0.50000  0.00000  1
 Tm  Tm1  1  0.00000  0.50000  0.50000  1
 Tm  Tm2  1  0.50000  0.50000  0.00000  1
 Tm  Tm3  1  0.50000  0.00000  0.50000  1
