CIF file written using JARVIS-Tools package.
data_HgPb2Cl2O2
_symmetry_space_group_name_H-M  'C2/m'
_cell_length_a       3.94959
_cell_length_b       6.25184
_cell_length_c       7.10434
_cell_angle_alpha    71.8569
_cell_angle_beta     73.8603
_cell_angle_gamma    71.5872

_symmetry_Int_Tables_number  12
_chemical_formula_structural  HgPb2Cl2O2
_chemical_formula_sum  HgPb2Cl2O2
_cell_volume  154.99578434007773
_cell_formula_units_Z  1
loop_
  _symmetry_equiv_pos_site_id
 _symmetry_equiv_pos_as_xyz
 1  'x, y, z'
loop_
 _atom_site_type_symbol
 _atom_site_label
 _atom_site_symmetry_multiplicity
 _atom_site_fract_x
 _atom_site_fract_y
 _atom_site_fract_z
 _atom_site_fract_occupancy
 Cl  Cl1  1  0.43020  0.79554  0.34407  1
 Cl  Cl2  1  0.56980  0.20446  0.65593  1
 Hg  Hg1  1  -0.00000  -0.00000  0.00000  1
 O  O1  1  0.19328  0.68029  0.93316  1
 O  O2  1  0.80672  0.31971  0.06684  1
 Pb  Pb1  1  0.81931  0.61110  0.75028  1
 Pb  Pb2  1  0.18069  0.38889  0.24972  1
