CIF file written using JARVIS-Tools package.
data_WO2F2
_symmetry_space_group_name_H-M  'Pmc2_1'
_cell_length_a       7.74131
_cell_length_b       3.90698
_cell_length_c       6.53026
_cell_angle_alpha    90
_cell_angle_beta     90
_cell_angle_gamma    90

_symmetry_Int_Tables_number  26
_chemical_formula_structural  WO2F2
_chemical_formula_sum  W2O4F4
_cell_volume  197.5088930678651
_cell_formula_units_Z  2
loop_
  _symmetry_equiv_pos_site_id
 _symmetry_equiv_pos_as_xyz
 1  'x, y, z'
loop_
 _atom_site_type_symbol
 _atom_site_label
 _atom_site_symmetry_multiplicity
 _atom_site_fract_x
 _atom_site_fract_y
 _atom_site_fract_z
 _atom_site_fract_occupancy
 F  F1  1  0.04692  0.01791  0.28147  1
 F  F2  1  0.04692  0.01791  0.71853  1
 F  F3  1  0.54692  0.98209  0.28147  1
 F  F4  1  0.54692  0.98209  0.71853  1
 O  O1  1  0.03171  0.49576  0.00000  1
 O  O2  1  0.28419  0.00515  0.00000  1
 O  O3  1  0.53171  0.50424  0.00000  1
 O  O4  1  0.78419  0.99485  0.00000  1
 W  W1  1  0.01315  0.94804  0.00000  1
 W  W2  1  0.51315  0.05196  0.00000  1
