CIF file written using JARVIS-Tools package.
data_Ho2Ge6Pd
_symmetry_space_group_name_H-M  'Amm2'
_cell_length_a       4.0279
_cell_length_b       4.09234
_cell_length_c       11.1906
_cell_angle_alpha    90
_cell_angle_beta     100.368
_cell_angle_gamma    90

_symmetry_Int_Tables_number  38
_chemical_formula_structural  Ho2Ge6Pd
_chemical_formula_sum  Ho2Ge6Pd
_cell_volume  181.44951236440144
_cell_formula_units_Z  1
loop_
  _symmetry_equiv_pos_site_id
 _symmetry_equiv_pos_as_xyz
 1  'x, y, z'
loop_
 _atom_site_type_symbol
 _atom_site_label
 _atom_site_symmetry_multiplicity
 _atom_site_fract_x
 _atom_site_fract_y
 _atom_site_fract_z
 _atom_site_fract_occupancy
 Ge  Ge1  1  0.21221  0.50000  0.42443  1
 Ge  Ge2  1  0.09782  0.50000  0.19563  1
 Ge  Ge3  1  0.89006  0.50000  0.78011  1
 Ge  Ge4  1  0.71373  0.00000  0.42746  1
 Ge  Ge5  1  0.59963  0.00000  0.19925  1
 Ge  Ge6  1  0.46210  0.50000  0.92421  1
 Ho  Ho1  1  0.33814  0.00000  0.67628  1
 Ho  Ho2  1  0.99829  0.00000  0.99658  1
 Pd  Pd1  1  0.78002  0.50000  0.56005  1
