CIF file written using JARVIS-Tools package.
data_ZrSiO4
_symmetry_space_group_name_H-M  'I4_1/a'
_cell_length_a       4.77543
_cell_length_b       4.7754
_cell_length_c       6.27315
_cell_angle_alpha    112.373
_cell_angle_beta     112.373
_cell_angle_gamma    89.9986

_symmetry_Int_Tables_number  88
_chemical_formula_structural  ZrSiO4
_chemical_formula_sum  Zr2Si2O8
_cell_volume  120.56261508390763
_cell_formula_units_Z  2
loop_
  _symmetry_equiv_pos_site_id
 _symmetry_equiv_pos_as_xyz
 1  'x, y, z'
loop_
 _atom_site_type_symbol
 _atom_site_label
 _atom_site_symmetry_multiplicity
 _atom_site_fract_x
 _atom_site_fract_y
 _atom_site_fract_z
 _atom_site_fract_occupancy
 O  O1  1  0.30652  0.45491  0.09444  1
 O  O2  1  0.63953  0.80652  0.59444  1
 O  O3  1  0.95491  0.28792  0.59444  1
 O  O4  1  0.78792  0.13953  0.09444  1
 O  O5  1  0.21208  0.86047  0.90556  1
 O  O6  1  0.04509  0.71208  0.40556  1
 O  O7  1  0.36047  0.19348  0.40556  1
 O  O8  1  0.69348  0.54509  0.90556  1
 Si  Si1  1  0.87500  0.62500  0.75000  1
 Si  Si2  1  0.12500  0.37500  0.25000  1
 Zr  Zr1  1  0.37500  0.12500  0.75000  1
 Zr  Zr2  1  0.62500  0.87500  0.25000  1
