CIF file written using JARVIS-Tools package.
data_Mg2Co12P7
_symmetry_space_group_name_H-M  'P-6'
_cell_length_a       8.99028
_cell_length_b       8.99028
_cell_length_c       3.47378
_cell_angle_alpha    90
_cell_angle_beta     90
_cell_angle_gamma    120

_symmetry_Int_Tables_number  174
_chemical_formula_structural  Mg2Co12P7
_chemical_formula_sum  Mg2Co2P7
_cell_volume  243.15279816166333
_cell_formula_units_Z  1
loop_
  _symmetry_equiv_pos_site_id
 _symmetry_equiv_pos_as_xyz
 1  'x, y, z'
loop_
 _atom_site_type_symbol
 _atom_site_label
 _atom_site_symmetry_multiplicity
 _atom_site_fract_x
 _atom_site_fract_y
 _atom_site_fract_z
 _atom_site_fract_occupancy
 Co  Co1  1  0.24078  0.10559  0.50000  1
 Co  Co2  1  0.72625  0.87958  0.00000  1
 Co  Co3  1  0.55729  0.93927  0.50000  1
 Co  Co4  1  0.44302  0.06640  0.00000  1
 Co  Co5  1  0.62337  0.55698  0.00000  1
 Co  Co6  1  0.15333  0.27375  0.00000  1
 Co  Co7  1  0.12042  0.84667  0.00000  1
 Co  Co8  1  0.93360  0.37663  0.00000  1
 Co  Co9  1  0.89441  0.13519  0.50000  1
 Co  Co10  1  0.86481  0.75922  0.50000  1
 Co  Co11  1  0.38198  0.44271  0.50000  1
 Co  Co12  1  0.06073  0.61802  0.50000  1
 Mg  Mg1  1  0.33333  0.66667  0.00000  1
 Mg  Mg2  1  0.66667  0.33333  0.50000  1
 P  P1  1  0.40728  0.29077  0.00000  1
 P  P2  1  0.59376  0.70804  0.50000  1
 P  P3  1  0.29196  0.88572  0.50000  1
 P  P4  1  0.11428  0.40624  0.50000  1
 P  P5  1  0.70923  0.11651  0.00000  1
 P  P6  1  0.88349  0.59272  0.00000  1
 P  P7  1  0.00000  0.00000  0.00000  1
