CIF file written using JARVIS-Tools package.
data_Tm5Si2Sb2
_symmetry_space_group_name_H-M  'Cmce'
_cell_length_a       7.73608
_cell_length_b       7.75851
_cell_length_c       8.38192
_cell_angle_alpha    90
_cell_angle_beta     117.482
_cell_angle_gamma    90

_symmetry_Int_Tables_number  64
_chemical_formula_structural  Tm5Si2Sb2
_chemical_formula_sum  Tm0Si4Sb4
_cell_volume  446.31503895162496
_cell_formula_units_Z  2
loop_
  _symmetry_equiv_pos_site_id
 _symmetry_equiv_pos_as_xyz
 1  'x, y, z'
loop_
 _atom_site_type_symbol
 _atom_site_label
 _atom_site_symmetry_multiplicity
 _atom_site_fract_x
 _atom_site_fract_y
 _atom_site_fract_z
 _atom_site_fract_occupancy
 Sb  Sb1  1  0.29455  0.50000  0.58910  1
 Sb  Sb2  1  0.70545  0.50000  0.41090  1
 Sb  Sb3  1  0.79455  0.00000  0.58910  1
 Sb  Sb4  1  0.20545  0.00000  0.41090  1
 Si  Si1  1  0.63563  0.13463  0.00000  1
 Si  Si2  1  0.13563  0.36537  0.00000  1
 Si  Si3  1  0.86437  0.63463  -0.00000  1
 Si  Si4  1  0.36437  0.86537  -0.00000  1
 Tm  Tm1  1  0.50000  0.50000  0.00000  1
 Tm  Tm2  1  0.53892  0.83572  0.74902  1
 Tm  Tm3  1  0.21010  0.16428  0.74902  1
 Tm  Tm4  1  0.96108  0.33572  0.25098  1
 Tm  Tm5  1  0.71010  0.33572  0.74902  1
 Tm  Tm6  1  0.46108  0.16428  0.25098  1
 Tm  Tm7  1  0.78990  0.83572  0.25098  1
 Tm  Tm8  1  0.03892  0.66428  0.74902  1
 Tm  Tm9  1  0.28990  0.66428  0.25098  1
 Tm  Tm10  1  0.00000  0.00000  0.00000  1
