CIF file written using JARVIS-Tools package.
data_Y4C5
_symmetry_space_group_name_H-M  'Pbam'
_cell_length_a       3.67115
_cell_length_b       6.59245
_cell_length_c       11.9583
_cell_angle_alpha    90
_cell_angle_beta     90
_cell_angle_gamma    90

_symmetry_Int_Tables_number  55
_chemical_formula_structural  Y4C5
_chemical_formula_sum  Y8C0
_cell_volume  289.4132544651042
_cell_formula_units_Z  2
loop_
  _symmetry_equiv_pos_site_id
 _symmetry_equiv_pos_as_xyz
 1  'x, y, z'
loop_
 _atom_site_type_symbol
 _atom_site_label
 _atom_site_symmetry_multiplicity
 _atom_site_fract_x
 _atom_site_fract_y
 _atom_site_fract_z
 _atom_site_fract_occupancy
 C  C1  1  0.00000  0.59738  0.15515  1
 C  C2  1  0.00000  0.09738  0.34485  1
 C  C3  1  0.50000  0.00000  0.00000  1
 C  C4  1  0.00000  0.36187  0.73639  1
 C  C5  1  0.50000  0.50000  0.50000  1
 C  C6  1  0.00000  0.86187  0.76361  1
 C  C7  1  0.00000  0.13813  0.23639  1
 C  C8  1  0.00000  0.40262  0.84485  1
 C  C9  1  0.00000  0.90262  0.65515  1
 C  C10  1  0.00000  0.63813  0.26361  1
 Y  Y1  1  0.50000  0.39220  0.30426  1
 Y  Y2  1  0.50000  0.60780  0.69574  1
 Y  Y3  1  0.50000  0.89220  0.19574  1
 Y  Y4  1  0.50000  0.10780  0.80426  1
 Y  Y5  1  0.00000  0.24483  0.04293  1
 Y  Y6  1  0.00000  0.75517  0.95707  1
 Y  Y7  1  0.00000  0.74483  0.45707  1
 Y  Y8  1  0.00000  0.25517  0.54293  1
