CIF file written using JARVIS-Tools package.
data_Rb3Mn2Cl7
_symmetry_space_group_name_H-M  'I4/mmm'
_cell_length_a       5.02645
_cell_length_b       5.02644
_cell_length_c       13.5287
_cell_angle_alpha    100.706
_cell_angle_beta     100.706
_cell_angle_gamma    90

_symmetry_Int_Tables_number  139
_chemical_formula_structural  Rb3Mn2Cl7
_chemical_formula_sum  Rb3Mn2Cl7
_cell_volume  329.7971443541034
_cell_formula_units_Z  1
loop_
  _symmetry_equiv_pos_site_id
 _symmetry_equiv_pos_as_xyz
 1  'x, y, z'
loop_
 _atom_site_type_symbol
 _atom_site_label
 _atom_site_symmetry_multiplicity
 _atom_site_fract_x
 _atom_site_fract_y
 _atom_site_fract_z
 _atom_site_fract_occupancy
 Cl  Cl1  1  0.90534  0.40534  0.81069  1
 Cl  Cl2  1  0.40534  0.90534  0.81069  1
 Cl  Cl3  1  0.09466  0.59466  0.18931  1
 Cl  Cl4  1  0.59466  0.09466  0.18931  1
 Cl  Cl5  1  0.69388  0.69388  0.38776  1
 Cl  Cl6  1  0.50000  0.50000  -0.00000  1
 Cl  Cl7  1  0.30612  0.30612  0.61224  1
 Mn  Mn1  1  0.40153  0.40153  0.80307  1
 Mn  Mn2  1  0.59847  0.59847  0.19693  1
 Rb  Rb1  1  0.18163  0.18163  0.36327  1
 Rb  Rb2  1  0.81837  0.81837  0.63673  1
 Rb  Rb3  1  0.00000  0.00000  0.00000  1
