CIF file written using JARVIS-Tools package.
data_NdCo4B4
_symmetry_space_group_name_H-M  'P4_2/n'
_cell_length_a       7.07988
_cell_length_b       7.07988
_cell_length_c       3.79156
_cell_angle_alpha    90
_cell_angle_beta     90
_cell_angle_gamma    90

_symmetry_Int_Tables_number  86
_chemical_formula_structural  NdCo4B4
_chemical_formula_sum  Nd2Co8B8
_cell_volume  190.05063749860054
_cell_formula_units_Z  2
loop_
  _symmetry_equiv_pos_site_id
 _symmetry_equiv_pos_as_xyz
 1  'x, y, z'
loop_
 _atom_site_type_symbol
 _atom_site_label
 _atom_site_symmetry_multiplicity
 _atom_site_fract_x
 _atom_site_fract_y
 _atom_site_fract_z
 _atom_site_fract_occupancy
 B  B1  1  0.20457  0.33799  0.10408  1
 B  B2  1  0.66201  0.20457  0.89592  1
 B  B3  1  0.33799  0.79543  0.89592  1
 B  B4  1  0.79543  0.66201  0.10408  1
 B  B5  1  0.16201  0.70457  0.60408  1
 B  B6  1  0.83799  0.29543  0.60408  1
 B  B7  1  0.70457  0.83799  0.39592  1
 B  B8  1  0.29543  0.16201  0.39592  1
 Co  Co1  1  0.14345  0.61440  0.10695  1
 Co  Co2  1  0.35655  0.88560  0.39305  1
 Co  Co3  1  0.64345  0.11440  0.39305  1
 Co  Co4  1  0.38560  0.14345  0.89305  1
 Co  Co5  1  0.88560  0.64345  0.60695  1
 Co  Co6  1  0.85655  0.38560  0.10695  1
 Co  Co7  1  0.11440  0.35655  0.60695  1
 Co  Co8  1  0.61440  0.85655  0.89305  1
 Nd  Nd1  1  0.50000  0.50000  0.50000  1
 Nd  Nd2  1  0.00000  0.00000  0.00000  1
