CIF file written using JARVIS-Tools package.
data_In2Se3
_symmetry_space_group_name_H-M  'R3m'
_cell_length_a       10.0472
_cell_length_b       10.0472
_cell_length_c       10.0472
_cell_angle_alpha    23.5539
_cell_angle_beta     23.5539
_cell_angle_gamma    23.5539

_symmetry_Int_Tables_number  160
_chemical_formula_structural  In2Se3
_chemical_formula_sum  In2Se3
_cell_volume  142.23735975428525
_cell_formula_units_Z  1
loop_
  _symmetry_equiv_pos_site_id
 _symmetry_equiv_pos_as_xyz
 1  'x, y, z'
loop_
 _atom_site_type_symbol
 _atom_site_label
 _atom_site_symmetry_multiplicity
 _atom_site_fract_x
 _atom_site_fract_y
 _atom_site_fract_z
 _atom_site_fract_occupancy
 In  In1  1  0.71267  0.71267  0.71267  1
 In  In2  1  0.25308  0.25308  0.25308  1
 Se  Se1  1  0.79736  0.79736  0.79736  1
 Se  Se2  1  0.54250  0.54250  0.54250  1
 Se  Se3  1  -0.00260  -0.00260  -0.00260  1
