CIF file written using JARVIS-Tools package.
data_Na2PrO3
_symmetry_space_group_name_H-M  'Fddd'
_cell_length_a       6.05137
_cell_length_b       6.05136
_cell_length_c       11.2018
_cell_angle_alpha    100.224
_cell_angle_beta     100.224
_cell_angle_gamma    110.071

_symmetry_Int_Tables_number  70
_chemical_formula_structural  Na2PrO3
_chemical_formula_sum  Na8Pr4O2
_cell_volume  366.34228835154113
_cell_formula_units_Z  4
loop_
  _symmetry_equiv_pos_site_id
 _symmetry_equiv_pos_as_xyz
 1  'x, y, z'
loop_
 _atom_site_type_symbol
 _atom_site_label
 _atom_site_symmetry_multiplicity
 _atom_site_fract_x
 _atom_site_fract_y
 _atom_site_fract_z
 _atom_site_fract_occupancy
 Na  Na1  1  0.62932  0.87935  0.75868  1
 Na  Na2  1  0.04714  0.79707  0.59425  1
 Na  Na3  1  0.95286  0.20293  0.40575  1
 Na  Na4  1  0.79707  0.04714  0.09425  1
 Na  Na5  1  0.87935  0.62932  0.25868  1
 Na  Na6  1  0.37068  0.12065  0.24132  1
 Na  Na7  1  0.12065  0.37068  0.74132  1
 Na  Na8  1  0.20293  0.95286  0.90575  1
 O  O1  1  0.69789  0.46998  0.42590  1
 O  O2  1  0.46998  0.69789  0.92590  1
 O  O3  1  0.30211  0.53002  0.57410  1
 O  O4  1  0.39305  0.14306  0.75001  1
 O  O5  1  0.85694  0.60695  0.74999  1
 O  O6  1  0.60695  0.85694  0.24999  1
 O  O7  1  0.14306  0.39305  0.25001  1
 O  O8  1  0.95580  0.22794  0.92592  1
 O  O9  1  0.04420  0.77206  0.07408  1
 O  O10  1  0.53002  0.30211  0.07410  1
 O  O11  1  0.22794  0.95580  0.42592  1
 O  O12  1  0.77206  0.04420  0.57408  1
 Pr  Pr1  1  0.70801  0.45806  0.91599  1
 Pr  Pr2  1  0.54194  0.29199  0.58401  1
 Pr  Pr3  1  0.45806  0.70801  0.41599  1
 Pr  Pr4  1  0.29199  0.54194  0.08401  1
