CIF file written using JARVIS-Tools package.
data_Li4CrFe3O8
_symmetry_space_group_name_H-M  'C2/m'
_cell_length_a       5.03535
_cell_length_b       5.74256
_cell_length_c       5.74166
_cell_angle_alpha    119.995
_cell_angle_beta     90.0001
_cell_angle_gamma    73.423

_symmetry_Int_Tables_number  12
_chemical_formula_structural  Li4CrFe3O8
_chemical_formula_sum  Li4CrFe3O8
_cell_volume  135.76279521054332
_cell_formula_units_Z  1
loop_
  _symmetry_equiv_pos_site_id
 _symmetry_equiv_pos_as_xyz
 1  'x, y, z'
loop_
 _atom_site_type_symbol
 _atom_site_label
 _atom_site_symmetry_multiplicity
 _atom_site_fract_x
 _atom_site_fract_y
 _atom_site_fract_z
 _atom_site_fract_occupancy
 Cr  Cr1  1  0.50000  0.50000  0.25000  1
 Fe  Fe1  1  0.50000  -0.00000  0.75000  1
 Fe  Fe2  1  0.50000  -0.00000  0.25000  1
 Fe  Fe3  1  0.50000  0.50000  0.75000  1
 Li  Li1  1  0.00154  0.99877  0.49938  1
 Li  Li2  1  0.99846  0.00123  0.00062  1
 Li  Li3  1  0.00000  0.50000  0.49885  1
 Li  Li4  1  -0.00000  0.50000  0.00115  1
 O  O1  1  0.27490  0.24167  0.62083  1
 O  O2  1  0.72619  0.25752  0.87804  1
 O  O3  1  0.27460  0.24091  0.12046  1
 O  O4  1  0.72619  0.25752  0.37948  1
 O  O5  1  0.27381  0.74248  0.62196  1
 O  O6  1  0.72510  0.75833  0.87916  1
 O  O7  1  0.27381  0.74248  0.12052  1
 O  O8  1  0.72540  0.75909  0.37954  1
