CIF file written using JARVIS-Tools package.
data_Li2Co3SbO8
_symmetry_space_group_name_H-M  'P6_3mc'
_cell_length_a       5.74869
_cell_length_b       5.74869
_cell_length_c       9.38005
_cell_angle_alpha    90
_cell_angle_beta     90
_cell_angle_gamma    120

_symmetry_Int_Tables_number  186
_chemical_formula_structural  Li2Co3SbO8
_chemical_formula_sum  Li4Co6Sb2O6
_cell_volume  268.4559314451935
_cell_formula_units_Z  2
loop_
  _symmetry_equiv_pos_site_id
 _symmetry_equiv_pos_as_xyz
 1  'x, y, z'
loop_
 _atom_site_type_symbol
 _atom_site_label
 _atom_site_symmetry_multiplicity
 _atom_site_fract_x
 _atom_site_fract_y
 _atom_site_fract_z
 _atom_site_fract_occupancy
 Co  Co1  1  0.33922  0.16961  0.78441  1
 Co  Co2  1  0.83039  0.16961  0.78441  1
 Co  Co3  1  0.83039  0.66078  0.78441  1
 Co  Co4  1  0.66078  0.83039  0.28441  1
 Co  Co5  1  0.16961  0.33922  0.28441  1
 Co  Co6  1  0.16961  0.83039  0.28441  1
 Li  Li1  1  0.66667  0.33333  0.09979  1
 Li  Li2  1  0.00000  0.00000  0.50523  1
 Li  Li3  1  0.00000  0.00000  0.00523  1
 Li  Li4  1  0.33333  0.66667  0.59979  1
 O  O1  1  0.51618  0.48382  0.66618  1
 O  O2  1  0.31738  0.15869  0.40070  1
 O  O3  1  0.48382  0.51618  0.16618  1
 O  O4  1  0.66667  0.33333  0.88727  1
 O  O5  1  0.00000  0.00000  0.69184  1
 O  O6  1  0.00000  0.00000  0.19184  1
 O  O7  1  0.84131  0.68262  0.40070  1
 O  O8  1  0.96765  0.48382  0.66618  1
 O  O9  1  0.15869  0.31738  0.90070  1
 O  O10  1  0.03235  0.51618  0.16618  1
 O  O11  1  0.48382  0.96765  0.16618  1
 O  O12  1  0.33333  0.66667  0.38727  1
 O  O13  1  0.51618  0.03235  0.66618  1
 O  O14  1  0.15869  0.84131  0.90070  1
 O  O15  1  0.84131  0.15869  0.40070  1
 O  O16  1  0.68262  0.84131  0.90070  1
 Sb  Sb1  1  0.33333  0.66667  0.00806  1
 Sb  Sb2  1  0.66667  0.33333  0.50806  1
