CIF file written using JARVIS-Tools package.
data_BaZrB2O6
_symmetry_space_group_name_H-M  'R-3c'
_cell_length_a       11.6991
_cell_length_b       11.6991
_cell_length_c       11.6991
_cell_angle_alpha    25.7509
_cell_angle_beta     25.7508
_cell_angle_gamma    25.7509

_symmetry_Int_Tables_number  167
_chemical_formula_structural  BaZrB2O6
_chemical_formula_sum  Ba2Zr2B4O2
_cell_volume  266.14876181273576
_cell_formula_units_Z  2
loop_
  _symmetry_equiv_pos_site_id
 _symmetry_equiv_pos_as_xyz
 1  'x, y, z'
loop_
 _atom_site_type_symbol
 _atom_site_label
 _atom_site_symmetry_multiplicity
 _atom_site_fract_x
 _atom_site_fract_y
 _atom_site_fract_z
 _atom_site_fract_occupancy
 B  B1  1  0.88052  0.88052  0.88052  1
 B  B2  1  0.11914  0.11914  0.11914  1
 B  B3  1  0.61914  0.61914  0.61914  1
 B  B4  1  0.38052  0.38052  0.38052  1
 Ba  Ba1  1  0.99983  0.99983  0.99983  1
 Ba  Ba2  1  0.49983  0.49983  0.49983  1
 O  O1  1  0.08144  0.58554  0.47251  1
 O  O2  1  0.58554  0.47251  0.08144  1
 O  O3  1  0.52717  0.41411  0.91822  1
 O  O4  1  0.58144  0.97251  0.08554  1
 O  O5  1  0.08554  0.58144  0.97251  1
 O  O6  1  0.91822  0.52717  0.41411  1
 O  O7  1  0.02717  0.41822  0.91411  1
 O  O8  1  0.47251  0.08144  0.58554  1
 O  O9  1  0.41822  0.91411  0.02717  1
 O  O10  1  0.91411  0.02717  0.41822  1
 O  O11  1  0.41411  0.91822  0.52717  1
 O  O12  1  0.97251  0.08554  0.58144  1
 Zr  Zr1  1  0.74983  0.74983  0.74983  1
 Zr  Zr2  1  0.24983  0.24983  0.24983  1
