CIF file written using JARVIS-Tools package.
data_BaSr4U3O14
_symmetry_space_group_name_H-M  'Cmce'
_cell_length_a       8.09661
_cell_length_b       8.09662
_cell_length_c       11.0434
_cell_angle_alpha    90
_cell_angle_beta     90
_cell_angle_gamma    90.0965

_symmetry_Int_Tables_number  64
_chemical_formula_structural  BaSr4U3O14
_chemical_formula_sum  Ba2Sr8U6O28
_cell_volume  723.9471641739763
_cell_formula_units_Z  2
loop_
  _symmetry_equiv_pos_site_id
 _symmetry_equiv_pos_as_xyz
 1  'x, y, z'
loop_
 _atom_site_type_symbol
 _atom_site_label
 _atom_site_symmetry_multiplicity
 _atom_site_fract_x
 _atom_site_fract_y
 _atom_site_fract_z
 _atom_site_fract_occupancy
 Ba  Ba1  1  0.50000  0.50000  0.00000  1
 Ba  Ba2  1  0.00000  0.00000  0.50000  1
 O  O1  1  0.00672  0.24669  0.07300  1
 O  O2  1  0.43645  0.56355  0.66613  1
 O  O3  1  0.56355  0.43645  0.33387  1
 O  O4  1  0.49328  0.25331  0.57300  1
 O  O5  1  0.46706  0.81389  0.12496  1
 O  O6  1  0.03294  0.68611  0.62496  1
 O  O7  1  0.69279  0.96711  0.61811  1
 O  O8  1  0.74669  0.50672  0.57300  1
 O  O9  1  0.18611  0.53294  0.12496  1
 O  O10  1  0.31389  0.96706  0.62496  1
 O  O11  1  0.03289  0.30721  0.61811  1
 O  O12  1  0.19279  0.46711  0.88189  1
 O  O13  1  0.30721  0.03289  0.38189  1
 O  O14  1  0.06355  0.93645  0.16613  1
 O  O15  1  0.25331  0.49328  0.42700  1
 O  O16  1  0.46711  0.19279  0.11811  1
 O  O17  1  0.80721  0.53289  0.11811  1
 O  O18  1  0.96711  0.69279  0.38189  1
 O  O19  1  0.50672  0.74669  0.42700  1
 O  O20  1  0.24669  0.00672  0.92700  1
 O  O21  1  0.75331  0.99328  0.07300  1
 O  O22  1  0.53289  0.80721  0.88189  1
 O  O23  1  0.96706  0.31389  0.37504  1
 O  O24  1  0.93645  0.06355  0.83387  1
 O  O25  1  0.81389  0.46706  0.87504  1
 O  O26  1  0.53294  0.18611  0.87504  1
 O  O27  1  0.99328  0.75331  0.92700  1
 O  O28  1  0.68611  0.03294  0.37504  1
 Sr  Sr1  1  0.72914  0.77086  0.25000  1
 Sr  Sr2  1  0.25091  0.74909  0.27554  1
 Sr  Sr3  1  0.24909  0.75091  0.77554  1
 Sr  Sr4  1  0.75091  0.24909  0.22446  1
 Sr  Sr5  1  0.74909  0.25091  0.72446  1
 Sr  Sr6  1  0.77086  0.72914  0.75000  1
 Sr  Sr7  1  0.22914  0.27086  0.25000  1
 Sr  Sr8  1  0.27086  0.22914  0.75000  1
 U  U1  1  0.00000  0.50000  0.50000  1
 U  U2  1  0.00000  0.50000  0.00000  1
 U  U3  1  0.50000  0.50000  0.50000  1
 U  U4  1  0.00000  0.00000  0.00000  1
 U  U5  1  0.50000  -0.00000  0.00000  1
 U  U6  1  0.50000  -0.00000  0.50000  1
