CIF file written using JARVIS-Tools package.
data_B3Ru7
_symmetry_space_group_name_H-M  'P6_3mc'
_cell_length_a       7.51276
_cell_length_b       7.51276
_cell_length_c       4.74966
_cell_angle_alpha    90
_cell_angle_beta     90
_cell_angle_gamma    120

_symmetry_Int_Tables_number  186
_chemical_formula_structural  B3Ru7
_chemical_formula_sum  B6Ru4
_cell_volume  232.16262166086787
_cell_formula_units_Z  2
loop_
  _symmetry_equiv_pos_site_id
 _symmetry_equiv_pos_as_xyz
 1  'x, y, z'
loop_
 _atom_site_type_symbol
 _atom_site_label
 _atom_site_symmetry_multiplicity
 _atom_site_fract_x
 _atom_site_fract_y
 _atom_site_fract_z
 _atom_site_fract_occupancy
 B  B1  1  0.18977  0.81023  0.16698  1
 B  B2  1  0.81023  0.62046  0.66698  1
 B  B3  1  0.37954  0.18977  0.66698  1
 B  B4  1  0.62046  0.81023  0.16698  1
 B  B5  1  0.18977  0.37954  0.16698  1
 B  B6  1  0.81023  0.18977  0.66698  1
 Ru  Ru1  1  0.12166  0.87834  0.75814  1
 Ru  Ru2  1  0.87834  0.75668  0.25814  1
 Ru  Ru3  1  0.24332  0.12166  0.25814  1
 Ru  Ru4  1  0.45690  0.91381  0.42942  1
 Ru  Ru5  1  0.12166  0.24332  0.75814  1
 Ru  Ru6  1  0.75668  0.87834  0.75814  1
 Ru  Ru7  1  0.45690  0.54310  0.42942  1
 Ru  Ru8  1  0.66667  0.33333  0.42439  1
 Ru  Ru9  1  0.87834  0.12166  0.25814  1
 Ru  Ru10  1  0.54310  0.08619  0.92942  1
 Ru  Ru11  1  0.91381  0.45690  0.92942  1
 Ru  Ru12  1  0.08619  0.54310  0.42942  1
 Ru  Ru13  1  0.33333  0.66667  0.92439  1
 Ru  Ru14  1  0.54310  0.45690  0.92942  1
