CIF file written using JARVIS-Tools package.
data_TbPO4
_symmetry_space_group_name_H-M  'I4_1/amd'
_cell_length_a       5.77405
_cell_length_b       5.77406
_cell_length_c       5.77407
_cell_angle_alpha    106.178
_cell_angle_beta     106.179
_cell_angle_gamma    116.279

_symmetry_Int_Tables_number  141
_chemical_formula_structural  TbPO4
_chemical_formula_sum  Tb2P2O8
_cell_volume  146.60420627113615
_cell_formula_units_Z  2
loop_
  _symmetry_equiv_pos_site_id
 _symmetry_equiv_pos_as_xyz
 1  'x, y, z'
loop_
 _atom_site_type_symbol
 _atom_site_label
 _atom_site_symmetry_multiplicity
 _atom_site_fract_x
 _atom_site_fract_y
 _atom_site_fract_z
 _atom_site_fract_occupancy
 O  O1  1  0.78362  0.35872  0.07510  1
 O  O2  1  0.70852  0.78362  0.92490  1
 O  O3  1  0.35872  0.78362  0.57510  1
 O  O4  1  0.78362  0.70852  0.42490  1
 O  O5  1  0.29148  0.21638  0.07510  1
 O  O6  1  0.21638  0.64128  0.92490  1
 O  O7  1  0.21638  0.29148  0.57510  1
 O  O8  1  0.64128  0.21638  0.42490  1
 P  P1  1  0.37500  0.62500  0.75000  1
 P  P2  1  0.62500  0.37500  0.25000  1
 Tb  Tb1  1  0.12500  0.87500  0.25000  1
 Tb  Tb2  1  0.87500  0.12500  0.75000  1
