CIF file written using JARVIS-Tools package.
data_Li3TaO4
_symmetry_space_group_name_H-M  'C2/c'
_cell_length_a       6.03892
_cell_length_b       6.03892
_cell_length_c       9.31471
_cell_angle_alpha    108.854
_cell_angle_beta     108.854
_cell_angle_gamma    90.091

_symmetry_Int_Tables_number  15
_chemical_formula_structural  Li3TaO4
_chemical_formula_sum  Li2Ta4O6
_cell_volume  302.08099368907756
_cell_formula_units_Z  4
loop_
  _symmetry_equiv_pos_site_id
 _symmetry_equiv_pos_as_xyz
 1  'x, y, z'
loop_
 _atom_site_type_symbol
 _atom_site_label
 _atom_site_symmetry_multiplicity
 _atom_site_fract_x
 _atom_site_fract_y
 _atom_site_fract_z
 _atom_site_fract_occupancy
 Li  Li1  1  0.94296  0.69666  0.13725  1
 Li  Li2  1  0.35928  0.56116  0.37489  1
 Li  Li3  1  0.64072  0.43884  0.62511  1
 Li  Li4  1  0.56116  0.35928  0.87489  1
 Li  Li5  1  0.56859  0.80544  0.88721  1
 Li  Li6  1  0.19456  0.43141  0.61279  1
 Li  Li7  1  0.43884  0.64072  0.12511  1
 Li  Li8  1  0.80544  0.56859  0.38721  1
 Li  Li9  1  0.30334  0.05704  0.36275  1
 Li  Li10  1  0.69666  0.94296  0.63725  1
 Li  Li11  1  0.05704  0.30334  0.86275  1
 Li  Li12  1  0.43141  0.19456  0.11279  1
 O  O1  1  0.30342  0.57544  0.88213  1
 O  O2  1  0.16754  0.94862  0.11386  1
 O  O3  1  0.94862  0.16754  0.61386  1
 O  O4  1  0.18052  0.43050  0.13218  1
 O  O5  1  0.56950  0.81948  0.36782  1
 O  O6  1  0.81948  0.56950  0.86782  1
 O  O7  1  0.43050  0.18052  0.63218  1
 O  O8  1  0.42456  0.69658  0.61787  1
 O  O9  1  0.57544  0.30342  0.38213  1
 O  O10  1  0.83246  0.05138  0.88614  1
 O  O11  1  0.70929  0.95791  0.13620  1
 O  O12  1  0.04209  0.29071  0.36380  1
 O  O13  1  0.29071  0.04209  0.86380  1
 O  O14  1  0.95791  0.70929  0.63620  1
 O  O15  1  0.05138  0.83246  0.38614  1
 O  O16  1  0.69658  0.42456  0.11787  1
 Ta  Ta1  1  0.22203  0.93781  0.62479  1
 Ta  Ta2  1  0.77797  0.06219  0.37521  1
 Ta  Ta3  1  0.93781  0.22203  0.12479  1
 Ta  Ta4  1  0.06219  0.77797  0.87521  1
