CIF file written using JARVIS-Tools package.
data_ThP2O7
_symmetry_space_group_name_H-M  'Pa-3'
_cell_length_a       9.01984
_cell_length_b       9.01984
_cell_length_c       9.01984
_cell_angle_alpha    90
_cell_angle_beta     90
_cell_angle_gamma    90

_symmetry_Int_Tables_number  205
_chemical_formula_structural  ThP2O7
_chemical_formula_sum  Th4P8O28
_cell_volume  733.8315121163439
_cell_formula_units_Z  4
loop_
  _symmetry_equiv_pos_site_id
 _symmetry_equiv_pos_as_xyz
 1  'x, y, z'
loop_
 _atom_site_type_symbol
 _atom_site_label
 _atom_site_symmetry_multiplicity
 _atom_site_fract_x
 _atom_site_fract_y
 _atom_site_fract_z
 _atom_site_fract_occupancy
 O  O1  1  0.55537  0.73880  0.07138  1
 O  O2  1  0.00000  0.00000  0.50000  1
 O  O3  1  0.44463  0.23880  0.42862  1
 O  O4  1  0.00000  0.50000  0.00000  1
 O  O5  1  0.55537  0.76120  0.57138  1
 O  O6  1  0.73880  0.42862  0.05537  1
 O  O7  1  0.05537  0.73880  0.42862  1
 O  O8  1  0.42862  0.05537  0.73880  1
 O  O9  1  0.07138  0.55537  0.73880  1
 O  O10  1  0.07138  0.94463  0.23880  1
 O  O11  1  0.57138  0.55537  0.76120  1
 O  O12  1  0.44463  0.26120  0.92862  1
 O  O13  1  0.94463  0.23880  0.07138  1
 O  O14  1  0.92862  0.44463  0.26120  1
 O  O15  1  0.23880  0.07138  0.94463  1
 O  O16  1  0.26120  0.92862  0.44463  1
 O  O17  1  0.76120  0.57138  0.55537  1
 O  O18  1  0.73880  0.07138  0.55537  1
 O  O19  1  0.05537  0.76120  0.92862  1
 O  O20  1  0.23880  0.42862  0.44463  1
 O  O21  1  0.42862  0.44463  0.23880  1
 O  O22  1  0.76120  0.92862  0.05537  1
 O  O23  1  0.92862  0.05537  0.76120  1
 O  O24  1  0.94463  0.26120  0.57138  1
 O  O25  1  0.26120  0.57138  0.94463  1
 O  O26  1  0.50000  0.00000  0.00000  1
 O  O27  1  0.57138  0.94463  0.26120  1
 O  O28  1  0.50000  0.50000  0.50000  1
 P  P1  1  0.39860  0.39860  0.39860  1
 P  P2  1  0.10140  0.60140  0.89860  1
 P  P3  1  0.89860  0.10140  0.60140  1
 P  P4  1  0.10140  0.89860  0.39860  1
 P  P5  1  0.89860  0.39860  0.10140  1
 P  P6  1  0.39860  0.10140  0.89860  1
 P  P7  1  0.60140  0.60140  0.60140  1
 P  P8  1  0.60140  0.89860  0.10140  1
 Th  Th1  1  0.00000  0.00000  0.00000  1
 Th  Th2  1  0.50000  0.00000  0.50000  1
 Th  Th3  1  0.50000  0.50000  0.00000  1
 Th  Th4  1  0.00000  0.50000  0.50000  1
