CIF file written using JARVIS-Tools package.
data_Hf5ZnSb3
_symmetry_space_group_name_H-M  'P6_3/mcm'
_cell_length_a       8.59417
_cell_length_b       8.59417
_cell_length_c       5.77258
_cell_angle_alpha    90
_cell_angle_beta     90
_cell_angle_gamma    120

_symmetry_Int_Tables_number  193
_chemical_formula_structural  Hf5ZnSb3
_chemical_formula_sum  Hf0Zn2Sb6
_cell_volume  369.239385251821
_cell_formula_units_Z  2
loop_
  _symmetry_equiv_pos_site_id
 _symmetry_equiv_pos_as_xyz
 1  'x, y, z'
loop_
 _atom_site_type_symbol
 _atom_site_label
 _atom_site_symmetry_multiplicity
 _atom_site_fract_x
 _atom_site_fract_y
 _atom_site_fract_z
 _atom_site_fract_occupancy
 Hf  Hf1  1  -0.00000  0.26961  0.75000  1
 Hf  Hf2  1  -0.00000  0.73039  0.25000  1
 Hf  Hf3  1  0.73039  0.73039  0.75000  1
 Hf  Hf4  1  0.26961  0.26961  0.25000  1
 Hf  Hf5  1  0.33333  0.66667  0.50000  1
 Hf  Hf6  1  0.73039  -0.00000  0.25000  1
 Hf  Hf7  1  0.66667  0.33333  0.50000  1
 Hf  Hf8  1  0.33333  0.66667  0.00000  1
 Hf  Hf9  1  0.66667  0.33333  0.00000  1
 Hf  Hf10  1  0.26961  -0.00000  0.75000  1
 Sb  Sb1  1  0.61509  0.61509  0.25000  1
 Sb  Sb2  1  -0.00000  0.38491  0.25000  1
 Sb  Sb3  1  0.38491  -0.00000  0.25000  1
 Sb  Sb4  1  0.00000  0.61509  0.75000  1
 Sb  Sb5  1  0.38491  0.38491  0.75000  1
 Sb  Sb6  1  0.61509  0.00000  0.75000  1
 Zn  Zn1  1  0.00000  0.00000  0.00000  1
 Zn  Zn2  1  0.00000  0.00000  0.50000  1
