CIF file written using JARVIS-Tools package.
data_Ca2Co12P7
_symmetry_space_group_name_H-M  'P-6'
_cell_length_a       9.05345
_cell_length_b       9.05345
_cell_length_c       3.56241
_cell_angle_alpha    90
_cell_angle_beta     90
_cell_angle_gamma    120

_symmetry_Int_Tables_number  174
_chemical_formula_structural  Ca2Co12P7
_chemical_formula_sum  Ca2Co2P7
_cell_volume  252.87333788934896
_cell_formula_units_Z  1
loop_
  _symmetry_equiv_pos_site_id
 _symmetry_equiv_pos_as_xyz
 1  'x, y, z'
loop_
 _atom_site_type_symbol
 _atom_site_label
 _atom_site_symmetry_multiplicity
 _atom_site_fract_x
 _atom_site_fract_y
 _atom_site_fract_z
 _atom_site_fract_occupancy
 Ca  Ca1  1  0.66667  0.33333  0.50000  1
 Ca  Ca2  1  0.33333  0.66667  0.00000  1
 Co  Co1  1  0.72867  0.88095  0.00000  1
 Co  Co2  1  0.38261  0.43559  0.50000  1
 Co  Co3  1  0.05298  0.61739  0.50000  1
 Co  Co4  1  0.86604  0.76036  0.50000  1
 Co  Co5  1  0.89431  0.13396  0.50000  1
 Co  Co6  1  0.23964  0.10569  0.50000  1
 Co  Co7  1  0.11905  0.84772  0.00000  1
 Co  Co8  1  0.15228  0.27133  0.00000  1
 Co  Co9  1  0.62318  0.56458  0.00000  1
 Co  Co10  1  0.43542  0.05860  0.00000  1
 Co  Co11  1  0.56441  0.94702  0.50000  1
 Co  Co12  1  0.94140  0.37682  0.00000  1
 P  P1  1  0.11022  0.40171  0.50000  1
 P  P2  1  0.70823  0.11294  0.00000  1
 P  P3  1  0.00000  0.00000  0.00000  1
 P  P4  1  0.40471  0.29177  0.00000  1
 P  P5  1  0.59829  0.70851  0.50000  1
 P  P6  1  0.29149  0.88978  0.50000  1
 P  P7  1  0.88706  0.59529  0.00000  1
