CIF file written using JARVIS-Tools package.
data_HoMoO4F
_symmetry_space_group_name_H-M  'P2_1/c'
_cell_length_a       5.20166
_cell_length_b       12.2704
_cell_length_c       6.65548
_cell_angle_alpha    90
_cell_angle_beta     113.184
_cell_angle_gamma    90

_symmetry_Int_Tables_number  14
_chemical_formula_structural  HoMoO4F
_chemical_formula_sum  Ho4Mo4O6F4
_cell_volume  390.48914115702905
_cell_formula_units_Z  4
loop_
  _symmetry_equiv_pos_site_id
 _symmetry_equiv_pos_as_xyz
 1  'x, y, z'
loop_
 _atom_site_type_symbol
 _atom_site_label
 _atom_site_symmetry_multiplicity
 _atom_site_fract_x
 _atom_site_fract_y
 _atom_site_fract_z
 _atom_site_fract_occupancy
 F  F1  1  0.54618  0.09959  0.96360  1
 F  F2  1  0.54618  0.40041  0.46360  1
 F  F3  1  0.45382  0.90041  0.03640  1
 F  F4  1  0.45382  0.59959  0.53640  1
 Ho  Ho1  1  0.36098  0.05080  0.19985  1
 Ho  Ho2  1  0.36098  0.44920  0.69985  1
 Ho  Ho3  1  0.63902  0.94920  0.80015  1
 Ho  Ho4  1  0.63902  0.55080  0.30015  1
 Mo  Mo1  1  0.92313  0.64408  0.87116  1
 Mo  Mo2  1  0.07687  0.35592  0.12884  1
 Mo  Mo3  1  0.07687  0.14408  0.62884  1
 Mo  Mo4  1  0.92313  0.85592  0.37116  1
 O  O1  1  0.99680  0.56926  0.66334  1
 O  O2  1  0.00320  0.06926  0.83666  1
 O  O3  1  0.18986  0.27832  0.70566  1
 O  O4  1  0.81014  0.72168  0.29434  1
 O  O5  1  0.18986  0.22168  0.20566  1
 O  O6  1  0.30815  0.06544  0.53763  1
 O  O7  1  0.99680  0.93074  0.16334  1
 O  O8  1  0.81014  0.77832  0.79434  1
 O  O9  1  0.24026  0.84568  0.59483  1
 O  O10  1  0.00320  0.43074  0.33666  1
 O  O11  1  0.69185  0.93456  0.46237  1
 O  O12  1  0.30815  0.43456  0.03763  1
 O  O13  1  0.75974  0.15432  0.40517  1
 O  O14  1  0.24026  0.65432  0.09483  1
 O  O15  1  0.75974  0.34568  0.90517  1
 O  O16  1  0.69185  0.56544  0.96237  1
