CIF file written using JARVIS-Tools package.
data_LiMnO2
_symmetry_space_group_name_H-M  'I4_1/amd'
_cell_length_a       4.09768
_cell_length_b       4.09766
_cell_length_c       5.1212
_cell_angle_alpha    113.58
_cell_angle_beta     113.585
_cell_angle_gamma    90.0011

_symmetry_Int_Tables_number  141
_chemical_formula_structural  LiMnO2
_chemical_formula_sum  Li2Mn2O4
_cell_volume  70.90215871130202
_cell_formula_units_Z  2
loop_
  _symmetry_equiv_pos_site_id
 _symmetry_equiv_pos_as_xyz
 1  'x, y, z'
loop_
 _atom_site_type_symbol
 _atom_site_label
 _atom_site_symmetry_multiplicity
 _atom_site_fract_x
 _atom_site_fract_y
 _atom_site_fract_z
 _atom_site_fract_occupancy
 Li  Li1  1  0.74942  0.24865  0.50091  1
 Li  Li2  1  0.49934  0.49864  0.00088  1
 Mn  Mn1  1  0.99940  0.99871  0.00098  1
 Mn  Mn2  1  0.24942  0.74867  0.50098  1
 O  O1  1  0.23325  0.23252  0.46865  1
 O  O2  1  0.76560  0.76487  0.53334  1
 O  O3  1  0.01558  0.51488  0.03333  1
 O  O4  1  0.48323  0.98252  0.96864  1
