CIF file written using JARVIS-Tools package.
data_AgAuS2
_symmetry_space_group_name_H-M  'Pccm'
_cell_length_a       4.80521
_cell_length_b       5.58292
_cell_length_c       7.76362
_cell_angle_alpha    90
_cell_angle_beta     90
_cell_angle_gamma    90

_symmetry_Int_Tables_number  49
_chemical_formula_structural  AgAuS2
_chemical_formula_sum  Ag2Au2S4
_cell_volume  208.2755738309204
_cell_formula_units_Z  2
loop_
  _symmetry_equiv_pos_site_id
 _symmetry_equiv_pos_as_xyz
 1  'x, y, z'
loop_
 _atom_site_type_symbol
 _atom_site_label
 _atom_site_symmetry_multiplicity
 _atom_site_fract_x
 _atom_site_fract_y
 _atom_site_fract_z
 _atom_site_fract_occupancy
 Ag  Ag1  1  0.00000  0.50000  0.25000  1
 Ag  Ag2  1  0.00000  0.50000  0.75000  1
 Au  Au1  1  0.50000  0.00000  0.00000  1
 Au  Au2  1  0.50000  0.00000  0.50000  1
 S  S1  1  0.67511  0.38138  0.00000  1
 S  S2  1  0.67511  0.61862  0.50000  1
 S  S3  1  0.32489  0.38138  0.50000  1
 S  S4  1  0.32489  0.61862  0.00000  1
