CIF file written using JARVIS-Tools package.
data_SrTcN3
_symmetry_space_group_name_H-M  'Cmcm'
_cell_length_a       4.18033
_cell_length_b       5.70211
_cell_length_c       6.64455
_cell_angle_alpha    90
_cell_angle_beta     71.6653
_cell_angle_gamma    90

_symmetry_Int_Tables_number  63
_chemical_formula_structural  SrTcN3
_chemical_formula_sum  Sr2Tc2N6
_cell_volume  150.3437732705981
_cell_formula_units_Z  2
loop_
  _symmetry_equiv_pos_site_id
 _symmetry_equiv_pos_as_xyz
 1  'x, y, z'
loop_
 _atom_site_type_symbol
 _atom_site_label
 _atom_site_symmetry_multiplicity
 _atom_site_fract_x
 _atom_site_fract_y
 _atom_site_fract_z
 _atom_site_fract_occupancy
 N  N1  1  0.85029  0.25000  0.60441  1
 N  N2  1  0.54531  0.25000  0.60441  1
 N  N3  1  0.00000  0.50000  0.00000  1
 N  N4  1  0.14971  0.75000  0.39559  1
 N  N5  1  0.45469  0.75000  0.39559  1
 N  N6  1  0.00000  0.00000  0.00000  1
 Sr  Sr1  1  0.37098  0.25000  0.25804  1
 Sr  Sr2  1  0.62902  0.75000  0.74196  1
 Tc  Tc1  1  0.90428  0.75000  0.19145  1
 Tc  Tc2  1  0.09572  0.25000  0.80855  1
