CIF file written using JARVIS-Tools package.
data_Tm2Pd2Pb
_symmetry_space_group_name_H-M  'P4/mbm'
_cell_length_a       7.82437
_cell_length_b       7.82437
_cell_length_c       3.55942
_cell_angle_alpha    90
_cell_angle_beta     90
_cell_angle_gamma    90

_symmetry_Int_Tables_number  127
_chemical_formula_structural  Tm2Pd2Pb
_chemical_formula_sum  Tm4Pd4Pb2
_cell_volume  217.91094333287006
_cell_formula_units_Z  2
loop_
  _symmetry_equiv_pos_site_id
 _symmetry_equiv_pos_as_xyz
 1  'x, y, z'
loop_
 _atom_site_type_symbol
 _atom_site_label
 _atom_site_symmetry_multiplicity
 _atom_site_fract_x
 _atom_site_fract_y
 _atom_site_fract_z
 _atom_site_fract_occupancy
 Pb  Pb1  1  0.50000  0.50000  0.00000  1
 Pb  Pb2  1  0.00000  0.00000  0.00000  1
 Pd  Pd1  1  0.87371  0.37371  0.00000  1
 Pd  Pd2  1  0.62629  0.87371  0.00000  1
 Pd  Pd3  1  0.37371  0.12629  0.00000  1
 Pd  Pd4  1  0.12629  0.62629  0.00000  1
 Tm  Tm1  1  0.33054  0.83054  0.50000  1
 Tm  Tm2  1  0.66946  0.16946  0.50000  1
 Tm  Tm3  1  0.16946  0.33054  0.50000  1
 Tm  Tm4  1  0.83054  0.66946  0.50000  1
