CIF file written using JARVIS-Tools package.
data_KC2N3
_symmetry_space_group_name_H-M  'Pbcm'
_cell_length_a       6.35838
_cell_length_b       6.95595
_cell_length_c       8.47279
_cell_angle_alpha    90
_cell_angle_beta     90
_cell_angle_gamma    90

_symmetry_Int_Tables_number  57
_chemical_formula_structural  KC2N3
_chemical_formula_sum  K4C8N2
_cell_volume  374.739284879066
_cell_formula_units_Z  4
loop_
  _symmetry_equiv_pos_site_id
 _symmetry_equiv_pos_as_xyz
 1  'x, y, z'
loop_
 _atom_site_type_symbol
 _atom_site_label
 _atom_site_symmetry_multiplicity
 _atom_site_fract_x
 _atom_site_fract_y
 _atom_site_fract_z
 _atom_site_fract_occupancy
 C  C1  1  0.23233  0.75000  0.31777  1
 C  C2  1  0.13693  0.25000  0.06156  1
 C  C3  1  0.76767  0.25000  0.68223  1
 C  C4  1  0.36307  0.75000  0.06156  1
 C  C5  1  0.73233  0.75000  0.68223  1
 C  C6  1  0.86307  0.75000  0.93844  1
 C  C7  1  0.26767  0.25000  0.31777  1
 C  C8  1  0.63693  0.25000  0.93844  1
 K  K1  1  0.75000  0.50000  0.32156  1
 K  K2  1  0.25000  0.50000  0.67844  1
 K  K3  1  0.75000  0.00000  0.32156  1
 K  K4  1  0.25000  0.00000  0.67844  1
 N  N1  1  0.11764  0.25000  0.21469  1
 N  N2  1  0.61764  0.25000  0.78531  1
 N  N3  1  0.38877  0.25000  0.42384  1
 N  N4  1  0.86692  0.75000  0.07722  1
 N  N5  1  0.38236  0.75000  0.21469  1
 N  N6  1  0.11123  0.75000  0.42384  1
 N  N7  1  0.88236  0.75000  0.78531  1
 N  N8  1  0.13308  0.25000  0.92278  1
 N  N9  1  0.61123  0.75000  0.57616  1
 N  N10  1  0.36692  0.75000  0.92278  1
 N  N11  1  0.88877  0.25000  0.57616  1
 N  N12  1  0.63308  0.25000  0.07722  1
