CIF file written using JARVIS-Tools package.
data_Y2Ge2O7
_symmetry_space_group_name_H-M  'P4_32_12'
_cell_length_a       6.85987
_cell_length_b       6.85987
_cell_length_c       12.4988
_cell_angle_alpha    90
_cell_angle_beta     90
_cell_angle_gamma    90

_symmetry_Int_Tables_number  96
_chemical_formula_structural  Y2Ge2O7
_chemical_formula_sum  Y8Ge8O28
_cell_volume  588.1665836914907
_cell_formula_units_Z  4
loop_
  _symmetry_equiv_pos_site_id
 _symmetry_equiv_pos_as_xyz
 1  'x, y, z'
loop_
 _atom_site_type_symbol
 _atom_site_label
 _atom_site_symmetry_multiplicity
 _atom_site_fract_x
 _atom_site_fract_y
 _atom_site_fract_z
 _atom_site_fract_occupancy
 Ge  Ge1  1  0.89973  0.15234  0.88065  1
 Ge  Ge2  1  0.10027  0.84766  0.38065  1
 Ge  Ge3  1  0.34766  0.39973  0.63065  1
 Ge  Ge4  1  0.60027  0.65234  0.86935  1
 Ge  Ge5  1  0.65234  0.60027  0.13065  1
 Ge  Ge6  1  0.39973  0.34766  0.36935  1
 Ge  Ge7  1  0.84766  0.10027  0.61935  1
 Ge  Ge8  1  0.15234  0.89973  0.11935  1
 O  O1  1  0.16177  0.56457  0.67905  1
 O  O2  1  0.35615  0.18259  0.70585  1
 O  O3  1  0.56457  0.16177  0.32095  1
 O  O4  1  0.06457  0.33823  0.92905  1
 O  O5  1  0.66177  0.93543  0.57095  1
 O  O6  1  0.33823  0.06457  0.07095  1
 O  O7  1  0.31741  0.85615  0.45585  1
 O  O8  1  0.46793  0.42178  0.12609  1
 O  O9  1  0.64385  0.81741  0.20585  1
 O  O10  1  0.03207  0.92178  0.62391  1
 O  O11  1  0.81741  0.64385  0.79415  1
 O  O12  1  0.18259  0.35615  0.29415  1
 O  O13  1  0.68259  0.14385  0.95585  1
 O  O14  1  0.85615  0.31741  0.54415  1
 O  O15  1  0.14385  0.68259  0.04415  1
 O  O16  1  0.92178  0.03207  0.37609  1
 O  O17  1  0.83823  0.43543  0.17905  1
 O  O18  1  0.96793  0.07822  0.12391  1
 O  O19  1  0.57822  0.53207  0.37391  1
 O  O20  1  0.07822  0.96793  0.87609  1
 O  O21  1  0.19962  0.80038  0.25000  1
 O  O22  1  0.69962  0.69962  0.00000  1
 O  O23  1  0.30038  0.30038  0.50000  1
 O  O24  1  0.93543  0.66177  0.42905  1
 O  O25  1  0.43543  0.83823  0.82095  1
 O  O26  1  0.53207  0.57822  0.62609  1
 O  O27  1  0.42178  0.46793  0.87391  1
 O  O28  1  0.80038  0.19962  0.75000  1
 Y  Y1  1  0.35312  0.87494  0.63545  1
 Y  Y2  1  0.62506  0.85312  0.38545  1
 Y  Y3  1  0.37494  0.14688  0.88545  1
 Y  Y4  1  0.85312  0.62506  0.61455  1
 Y  Y5  1  0.14688  0.37494  0.11455  1
 Y  Y6  1  0.64688  0.12506  0.13545  1
 Y  Y7  1  0.87494  0.35312  0.36455  1
 Y  Y8  1  0.12506  0.64688  0.86455  1
