CIF file written using JARVIS-Tools package.
data_KHfPdF7
_symmetry_space_group_name_H-M  'Pnna'
_cell_length_a       6.26746
_cell_length_b       8.91774
_cell_length_c       10.6366
_cell_angle_alpha    90
_cell_angle_beta     90
_cell_angle_gamma    90

_symmetry_Int_Tables_number  52
_chemical_formula_structural  KHfPdF7
_chemical_formula_sum  K4Hf4Pd4F28
_cell_volume  594.4950524589201
_cell_formula_units_Z  4
loop_
  _symmetry_equiv_pos_site_id
 _symmetry_equiv_pos_as_xyz
 1  'x, y, z'
loop_
 _atom_site_type_symbol
 _atom_site_label
 _atom_site_symmetry_multiplicity
 _atom_site_fract_x
 _atom_site_fract_y
 _atom_site_fract_z
 _atom_site_fract_occupancy
 F  F1  1  0.89062  0.55359  0.38732  1
 F  F2  1  0.58115  0.32266  0.26310  1
 F  F3  1  0.60938  0.05359  0.11268  1
 F  F4  1  0.91885  0.17734  0.26310  1
 F  F5  1  0.43965  0.66470  0.45150  1
 F  F6  1  0.75000  0.75000  0.58998  1
 F  F7  1  0.75000  0.25000  0.91002  1
 F  F8  1  0.25000  0.25000  0.41002  1
 F  F9  1  0.39062  0.94641  0.88732  1
 F  F10  1  0.25000  0.75000  0.08998  1
 F  F11  1  0.43965  0.33530  0.04850  1
 F  F12  1  0.06035  0.16470  0.04850  1
 F  F13  1  0.06035  0.83530  0.45150  1
 F  F14  1  0.56035  0.33530  0.54850  1
 F  F15  1  0.56035  0.66470  0.95150  1
 F  F16  1  0.93965  0.83530  0.95150  1
 F  F17  1  0.93965  0.16470  0.54850  1
 F  F18  1  0.10938  0.44641  0.61268  1
 F  F19  1  0.89062  0.44641  0.11268  1
 F  F20  1  0.10938  0.55359  0.88732  1
 F  F21  1  0.60938  0.94641  0.38732  1
 F  F22  1  0.39062  0.05359  0.61268  1
 F  F23  1  0.41885  0.32266  0.76310  1
 F  F24  1  0.08115  0.82266  0.73690  1
 F  F25  1  0.08115  0.17734  0.76310  1
 F  F26  1  0.58115  0.67734  0.23690  1
 F  F27  1  0.41885  0.67734  0.73690  1
 F  F28  1  0.91885  0.82266  0.23690  1
 Hf  Hf1  1  0.25000  0.75000  0.90493  1
 Hf  Hf2  1  0.25000  0.25000  0.59507  1
 Hf  Hf3  1  0.75000  0.25000  0.09507  1
 Hf  Hf4  1  0.75000  0.75000  0.40493  1
 K  K1  1  0.23392  0.50000  0.25000  1
 K  K2  1  0.73392  0.00000  0.75000  1
 K  K3  1  0.76608  0.50000  0.75000  1
 K  K4  1  0.26608  0.00000  0.25000  1
 Pd  Pd1  1  0.25000  0.75000  0.58909  1
 Pd  Pd2  1  0.25000  0.25000  0.91091  1
 Pd  Pd3  1  0.75000  0.75000  0.08909  1
 Pd  Pd4  1  0.75000  0.25000  0.41091  1
