CIF file written using JARVIS-Tools package.
data_ThRu
_symmetry_space_group_name_H-M  'Cmcm'
_cell_length_a       3.91401
_cell_length_b       4.03632
_cell_length_c       6.10136
_cell_angle_alpha    90
_cell_angle_beta     108.708
_cell_angle_gamma    90

_symmetry_Int_Tables_number  63
_chemical_formula_structural  ThRu
_chemical_formula_sum  Th2Ru2
_cell_volume  91.29761061799739
_cell_formula_units_Z  2
loop_
  _symmetry_equiv_pos_site_id
 _symmetry_equiv_pos_as_xyz
 1  'x, y, z'
loop_
 _atom_site_type_symbol
 _atom_site_label
 _atom_site_symmetry_multiplicity
 _atom_site_fract_x
 _atom_site_fract_y
 _atom_site_fract_z
 _atom_site_fract_occupancy
 Ru  Ru1  1  0.40738  0.75000  0.81476  1
 Ru  Ru2  1  0.59262  0.25000  0.18524  1
 Th  Th1  1  0.13806  0.75000  0.27611  1
 Th  Th2  1  0.86194  0.25000  0.72389  1
