CIF file written using JARVIS-Tools package.
data_NaErP2S6
_symmetry_space_group_name_H-M  'P-1'
_cell_length_a       6.87065
_cell_length_b       7.0678
_cell_length_c       9.12575
_cell_angle_alpha    87.3974
_cell_angle_beta     87.6785
_cell_angle_gamma    88.0769

_symmetry_Int_Tables_number  2
_chemical_formula_structural  NaErP2S6
_chemical_formula_sum  Na2Er2P4S2
_cell_volume  442.1058054236916
_cell_formula_units_Z  2
loop_
  _symmetry_equiv_pos_site_id
 _symmetry_equiv_pos_as_xyz
 1  'x, y, z'
loop_
 _atom_site_type_symbol
 _atom_site_label
 _atom_site_symmetry_multiplicity
 _atom_site_fract_x
 _atom_site_fract_y
 _atom_site_fract_z
 _atom_site_fract_occupancy
 Er  Er1  1  0.97638  0.11933  0.74671  1
 Er  Er2  1  0.02362  0.88067  0.25329  1
 Na  Na1  1  0.46510  0.39761  0.27165  1
 Na  Na2  1  0.53490  0.60239  0.72835  1
 P  P1  1  0.34987  0.96142  0.97106  1
 P  P2  1  0.65013  0.03858  0.02894  1
 P  P3  1  0.93253  0.39048  0.43467  1
 P  P4  1  0.06747  0.60952  0.56533  1
 S  S1  1  0.12974  0.48066  0.76108  1
 S  S2  1  0.64875  0.02998  0.25229  1
 S  S3  1  0.29840  0.70470  0.43855  1
 S  S4  1  0.87026  0.51934  0.23892  1
 S  S5  1  0.83604  0.83302  0.94730  1
 S  S6  1  0.29938  0.70555  0.07007  1
 S  S7  1  0.14595  0.17893  0.43791  1
 S  S8  1  0.35125  0.97002  0.74771  1
 S  S9  1  0.85405  0.82107  0.56209  1
 S  S10  1  0.70062  0.29445  0.92993  1
 S  S11  1  0.70160  0.29530  0.56145  1
 S  S12  1  0.16396  0.16698  0.05270  1
