CIF file written using JARVIS-Tools package.
data_Zn3N2
_symmetry_space_group_name_H-M  'Ia-3'
_cell_length_a       8.52003
_cell_length_b       8.52003
_cell_length_c       8.52002
_cell_angle_alpha    109.471
_cell_angle_beta     109.471
_cell_angle_gamma    109.471

_symmetry_Int_Tables_number  206
_chemical_formula_structural  Zn3N2
_chemical_formula_sum  Zn24N6
_cell_volume  476.10259417641385
_cell_formula_units_Z  8
loop_
  _symmetry_equiv_pos_site_id
 _symmetry_equiv_pos_as_xyz
 1  'x, y, z'
loop_
 _atom_site_type_symbol
 _atom_site_label
 _atom_site_symmetry_multiplicity
 _atom_site_fract_x
 _atom_site_fract_y
 _atom_site_fract_z
 _atom_site_fract_occupancy
 N  N1  1  0.25000  0.73170  0.48170  1
 N  N2  1  0.01830  0.75000  0.76830  1
 N  N3  1  0.76830  0.01830  0.75000  1
 N  N4  1  0.48170  0.25000  0.73170  1
 N  N5  1  0.73170  0.48170  0.25000  1
 N  N6  1  0.75000  0.76830  0.01830  1
 N  N7  1  0.98170  0.25000  0.23170  1
 N  N8  1  0.75000  0.26830  0.51830  1
 N  N9  1  0.26830  0.51830  0.75000  1
 N  N10  1  0.25000  0.23170  0.98170  1
 N  N11  1  0.00000  0.50000  0.00000  1
 N  N12  1  0.50000  0.00000  -0.00000  1
 N  N13  1  0.00000  0.00000  0.50000  1
 N  N14  1  0.50000  0.50000  0.50000  1
 N  N15  1  0.51830  0.75000  0.26830  1
 N  N16  1  0.23170  0.98170  0.25000  1
 Zn  Zn1  1  0.74917  0.02070  0.47061  1
 Zn  Zn2  1  0.97061  0.94990  0.72144  1
 Zn  Zn3  1  0.05010  0.27856  0.02939  1
 Zn  Zn4  1  0.27154  0.75083  0.22144  1
 Zn  Zn5  1  0.44990  0.47930  0.22846  1
 Zn  Zn6  1  0.72144  0.97061  0.94990  1
 Zn  Zn7  1  0.22144  0.27154  0.75083  1
 Zn  Zn8  1  0.02070  0.47061  0.74917  1
 Zn  Zn9  1  0.47061  0.74917  0.02070  1
 Zn  Zn10  1  0.75083  0.22144  0.27154  1
 Zn  Zn11  1  0.02939  0.05010  0.27856  1
 Zn  Zn12  1  0.47930  0.22846  0.44990  1
 Zn  Zn13  1  0.97930  0.52939  0.25083  1
 Zn  Zn14  1  0.22846  0.44990  0.47930  1
 Zn  Zn15  1  0.27856  0.02939  0.05010  1
 Zn  Zn16  1  0.77154  0.55010  0.52070  1
 Zn  Zn17  1  0.55010  0.52070  0.77154  1
 Zn  Zn18  1  0.25083  0.97930  0.52939  1
 Zn  Zn19  1  0.72846  0.24917  0.77856  1
 Zn  Zn20  1  0.94990  0.72144  0.97061  1
 Zn  Zn21  1  0.52939  0.25083  0.97930  1
 Zn  Zn22  1  0.24917  0.77856  0.72846  1
 Zn  Zn23  1  0.77856  0.72846  0.24917  1
 Zn  Zn24  1  0.52070  0.77154  0.55010  1
