CIF file written using JARVIS-Tools package.
data_RbAuBr3
_symmetry_space_group_name_H-M  'C2/m'
_cell_length_a       7.32209
_cell_length_b       7.29848
_cell_length_c       8.3704
_cell_angle_alpha    63.0584
_cell_angle_beta     64.0632
_cell_angle_gamma    59.893

_symmetry_Int_Tables_number  12
_chemical_formula_structural  RbAuBr3
_chemical_formula_sum  Rb2Au2Br6
_cell_volume  331.9206129709881
_cell_formula_units_Z  2
loop_
  _symmetry_equiv_pos_site_id
 _symmetry_equiv_pos_as_xyz
 1  'x, y, z'
loop_
 _atom_site_type_symbol
 _atom_site_label
 _atom_site_symmetry_multiplicity
 _atom_site_fract_x
 _atom_site_fract_y
 _atom_site_fract_z
 _atom_site_fract_occupancy
 Au  Au1  1  0.00000  0.00000  0.00000  1
 Au  Au2  1  0.50000  0.50000  0.50000  1
 Br  Br1  1  0.20367  0.25715  0.81624  1
 Br  Br2  1  0.27706  0.74285  0.18376  1
 Br  Br3  1  0.79633  0.74285  0.18376  1
 Br  Br4  1  0.72294  0.25715  0.81624  1
 Br  Br5  1  0.72225  0.19853  0.35697  1
 Br  Br6  1  0.27775  0.80147  0.64303  1
 Rb  Rb1  1  0.26887  0.23124  0.23102  1
 Rb  Rb2  1  0.73113  0.76876  0.76898  1
