CIF file written using JARVIS-Tools package.
data_Zn3P2S8
_symmetry_space_group_name_H-M  'P-4n2'
_cell_length_a       7.79567
_cell_length_b       7.79567
_cell_length_c       9.20752
_cell_angle_alpha    90
_cell_angle_beta     90
_cell_angle_gamma    90

_symmetry_Int_Tables_number  118
_chemical_formula_structural  Zn3P2S8
_chemical_formula_sum  Zn6P4S6
_cell_volume  559.5637404548227
_cell_formula_units_Z  2
loop_
  _symmetry_equiv_pos_site_id
 _symmetry_equiv_pos_as_xyz
 1  'x, y, z'
loop_
 _atom_site_type_symbol
 _atom_site_label
 _atom_site_symmetry_multiplicity
 _atom_site_fract_x
 _atom_site_fract_y
 _atom_site_fract_z
 _atom_site_fract_occupancy
 P  P1  1  0.24351  0.25649  0.25000  1
 P  P2  1  0.25649  0.75649  0.75000  1
 P  P3  1  0.75649  0.74351  0.25000  1
 P  P4  1  0.74351  0.24351  0.75000  1
 S  S1  1  0.46972  0.73353  0.62515  1
 S  S2  1  0.48230  0.24791  0.14067  1
 S  S3  1  0.24791  0.51770  0.85933  1
 S  S4  1  0.51770  0.75209  0.14067  1
 S  S5  1  0.25209  0.01770  0.35933  1
 S  S6  1  0.01770  0.74791  0.64067  1
 S  S7  1  0.98230  0.25209  0.64067  1
 S  S8  1  0.74791  0.98230  0.35933  1
 S  S9  1  0.76647  0.03028  0.87485  1
 S  S10  1  0.03028  0.23353  0.12515  1
 S  S11  1  0.75209  0.48230  0.85933  1
 S  S12  1  0.26647  0.46972  0.37485  1
 S  S13  1  0.96972  0.76647  0.12515  1
 S  S14  1  0.53028  0.26647  0.62515  1
 S  S15  1  0.23353  0.96972  0.87485  1
 S  S16  1  0.73353  0.53028  0.37485  1
 Zn  Zn1  1  0.00000  0.00000  0.50000  1
 Zn  Zn2  1  0.50000  0.50000  0.00000  1
 Zn  Zn3  1  0.50000  0.00000  0.98410  1
 Zn  Zn4  1  0.00000  0.50000  0.01590  1
 Zn  Zn5  1  0.50000  0.00000  0.51590  1
 Zn  Zn6  1  0.00000  0.50000  0.48410  1
