CIF file written using JARVIS-Tools package.
data_Ba4Bi3
_symmetry_space_group_name_H-M  'I-43d'
_cell_length_a       9.22801
_cell_length_b       9.22801
_cell_length_c       9.22801
_cell_angle_alpha    109.471
_cell_angle_beta     109.471
_cell_angle_gamma    109.471

_symmetry_Int_Tables_number  220
_chemical_formula_structural  Ba4Bi3
_chemical_formula_sum  Ba8Bi6
_cell_volume  604.9263863090598
_cell_formula_units_Z  2
loop_
  _symmetry_equiv_pos_site_id
 _symmetry_equiv_pos_as_xyz
 1  'x, y, z'
loop_
 _atom_site_type_symbol
 _atom_site_label
 _atom_site_symmetry_multiplicity
 _atom_site_fract_x
 _atom_site_fract_y
 _atom_site_fract_z
 _atom_site_fract_occupancy
 Ba  Ba1  1  0.64542  0.64542  0.64542  1
 Ba  Ba2  1  0.35458  0.50000  0.00000  1
 Ba  Ba3  1  0.50000  0.00000  0.35458  1
 Ba  Ba4  1  0.00000  0.35458  0.50000  1
 Ba  Ba5  1  0.50000  0.00000  0.85458  1
 Ba  Ba6  1  0.00000  0.85458  0.50000  1
 Ba  Ba7  1  0.14542  0.14542  0.14542  1
 Ba  Ba8  1  0.85458  0.50000  0.00000  1
 Bi  Bi1  1  0.75000  0.87500  0.12500  1
 Bi  Bi2  1  0.62500  0.37500  0.25000  1
 Bi  Bi3  1  0.87500  0.12500  0.75000  1
 Bi  Bi4  1  0.12500  0.75000  0.87500  1
 Bi  Bi5  1  0.37500  0.25000  0.62500  1
 Bi  Bi6  1  0.25000  0.62500  0.37500  1
