CIF file written using JARVIS-Tools package.
data_KNa2
_symmetry_space_group_name_H-M  'P6_3/mmc'
_cell_length_a       7.34494
_cell_length_b       7.34494
_cell_length_c       12.0229
_cell_angle_alpha    90
_cell_angle_beta     90
_cell_angle_gamma    120

_symmetry_Int_Tables_number  194
_chemical_formula_structural  KNa2
_chemical_formula_sum  K4Na8
_cell_volume  561.7123803138818
_cell_formula_units_Z  4
loop_
  _symmetry_equiv_pos_site_id
 _symmetry_equiv_pos_as_xyz
 1  'x, y, z'
loop_
 _atom_site_type_symbol
 _atom_site_label
 _atom_site_symmetry_multiplicity
 _atom_site_fract_x
 _atom_site_fract_y
 _atom_site_fract_z
 _atom_site_fract_occupancy
 K  K1  1  0.33333  0.66667  0.93756  1
 K  K2  1  0.66667  0.33333  0.43756  1
 K  K3  1  0.66667  0.33333  0.06244  1
 K  K4  1  0.33333  0.66667  0.56244  1
 Na  Na1  1  0.16812  0.33624  0.25000  1
 Na  Na2  1  0.33624  0.16812  0.75000  1
 Na  Na3  1  0.83188  0.16812  0.75000  1
 Na  Na4  1  0.16812  0.83188  0.25000  1
 Na  Na5  1  0.66376  0.83188  0.25000  1
 Na  Na6  1  0.00000  0.00000  0.00000  1
 Na  Na7  1  0.83188  0.66376  0.75000  1
 Na  Na8  1  0.00000  0.00000  0.50000  1
