CIF file written using JARVIS-Tools package.
data_Bi2Ir2O7
_symmetry_space_group_name_H-M  'Fd-3m'
_cell_length_a       7.37512
_cell_length_b       7.37512
_cell_length_c       7.37512
_cell_angle_alpha    60
_cell_angle_beta     60
_cell_angle_gamma    60

_symmetry_Int_Tables_number  227
_chemical_formula_structural  Bi2Ir2O7
_chemical_formula_sum  Bi4Ir4O4
_cell_volume  283.65610191351163
_cell_formula_units_Z  2
loop_
  _symmetry_equiv_pos_site_id
 _symmetry_equiv_pos_as_xyz
 1  'x, y, z'
loop_
 _atom_site_type_symbol
 _atom_site_label
 _atom_site_symmetry_multiplicity
 _atom_site_fract_x
 _atom_site_fract_y
 _atom_site_fract_z
 _atom_site_fract_occupancy
 Bi  Bi1  1  0.50000  0.50000  0.50000  1
 Bi  Bi2  1  0.50000  0.50000  -0.00000  1
 Bi  Bi3  1  -0.00000  0.50000  0.50000  1
 Bi  Bi4  1  0.50000  0.00000  0.50000  1
 Ir  Ir1  1  0.00000  0.00000  0.50000  1
 Ir  Ir2  1  0.00000  0.00000  0.00000  1
 Ir  Ir3  1  -0.00000  0.50000  0.00000  1
 Ir  Ir4  1  0.50000  0.00000  0.00000  1
 O  O1  1  0.08103  0.08103  0.66897  1
 O  O2  1  0.91897  0.33103  0.33103  1
 O  O3  1  0.66897  0.08103  0.66897  1
 O  O4  1  0.33103  0.91897  0.91897  1
 O  O5  1  0.66897  0.08103  0.08103  1
 O  O6  1  0.66897  0.66897  0.08103  1
 O  O7  1  0.91897  0.33103  0.91897  1
 O  O8  1  0.33103  0.91897  0.33103  1
 O  O9  1  0.08103  0.66897  0.08103  1
 O  O10  1  0.37500  0.37500  0.37500  1
 O  O11  1  0.91897  0.91897  0.33103  1
 O  O12  1  0.62500  0.62500  0.62500  1
 O  O13  1  0.33103  0.33103  0.91897  1
 O  O14  1  0.08103  0.66897  0.66897  1
