CIF file written using JARVIS-Tools package.
data_Na3HoCl6
_symmetry_space_group_name_H-M  'P2_1/c'
_cell_length_a       6.74057
_cell_length_b       7.25146
_cell_length_c       12.0146
_cell_angle_alpha    90
_cell_angle_beta     123.028
_cell_angle_gamma    90

_symmetry_Int_Tables_number  14
_chemical_formula_structural  Na3HoCl6
_chemical_formula_sum  Na6Ho2Cl2
_cell_volume  492.3587932114058
_cell_formula_units_Z  2
loop_
  _symmetry_equiv_pos_site_id
 _symmetry_equiv_pos_as_xyz
 1  'x, y, z'
loop_
 _atom_site_type_symbol
 _atom_site_label
 _atom_site_symmetry_multiplicity
 _atom_site_fract_x
 _atom_site_fract_y
 _atom_site_fract_z
 _atom_site_fract_occupancy
 Cl  Cl1  1  0.61327  0.32057  0.93145  1
 Cl  Cl2  1  0.09477  0.56190  0.24107  1
 Cl  Cl3  1  0.38673  0.67943  0.06855  1
 Cl  Cl4  1  0.90523  0.43810  0.75893  1
 Cl  Cl5  1  0.09477  0.93810  0.74107  1
 Cl  Cl6  1  0.90523  0.06190  0.25893  1
 Cl  Cl7  1  0.24633  0.30744  0.57874  1
 Cl  Cl8  1  0.24633  0.19256  0.07874  1
 Cl  Cl9  1  0.75367  0.69256  0.42126  1
 Cl  Cl10  1  0.61327  0.17943  0.43145  1
 Cl  Cl11  1  0.38673  0.82057  0.56855  1
 Cl  Cl12  1  0.75367  0.80744  0.92126  1
 Ho  Ho1  1  -0.00000  0.00000  0.50000  1
 Ho  Ho2  1  0.00000  0.50000  0.00000  1
 Na  Na1  1  0.28986  0.58679  0.75709  1
 Na  Na2  1  0.71014  0.08679  0.74291  1
 Na  Na3  1  0.71014  0.41321  0.24291  1
 Na  Na4  1  0.28986  0.91321  0.25709  1
 Na  Na5  1  0.50000  0.00000  -0.00000  1
 Na  Na6  1  0.50000  0.50000  0.50000  1
