CIF file written using JARVIS-Tools package.
data_YbMgSi
_symmetry_space_group_name_H-M  'Pnma'
_cell_length_a       4.41373
_cell_length_b       7.42266
_cell_length_c       8.20537
_cell_angle_alpha    90
_cell_angle_beta     90
_cell_angle_gamma    90

_symmetry_Int_Tables_number  62
_chemical_formula_structural  YbMgSi
_chemical_formula_sum  Yb4Mg4Si4
_cell_volume  268.8212475386671
_cell_formula_units_Z  4
loop_
  _symmetry_equiv_pos_site_id
 _symmetry_equiv_pos_as_xyz
 1  'x, y, z'
loop_
 _atom_site_type_symbol
 _atom_site_label
 _atom_site_symmetry_multiplicity
 _atom_site_fract_x
 _atom_site_fract_y
 _atom_site_fract_z
 _atom_site_fract_occupancy
 Mg  Mg1  1  0.75000  0.85455  0.06463  1
 Mg  Mg2  1  0.75000  0.35455  0.43537  1
 Mg  Mg3  1  0.25000  0.64545  0.56463  1
 Mg  Mg4  1  0.25000  0.14545  0.93537  1
 Si  Si1  1  0.75000  0.23038  0.11448  1
 Si  Si2  1  0.75000  0.73038  0.38552  1
 Si  Si3  1  0.25000  0.26962  0.61448  1
 Si  Si4  1  0.25000  0.76962  0.88552  1
 Yb  Yb1  1  0.25000  0.51895  0.18080  1
 Yb  Yb2  1  0.25000  0.01895  0.31920  1
 Yb  Yb3  1  0.75000  0.98105  0.68080  1
 Yb  Yb4  1  0.75000  0.48105  0.81920  1
