CIF file written using JARVIS-Tools package.
data_Ca2InN
_symmetry_space_group_name_H-M  'Cmcm'
_cell_length_a       3.49246
_cell_length_b       4.98215
_cell_length_c       10.2317
_cell_angle_alpha    90
_cell_angle_beta     99.8267
_cell_angle_gamma    90

_symmetry_Int_Tables_number  63
_chemical_formula_structural  Ca2InN
_chemical_formula_sum  Ca4In2N2
_cell_volume  175.41949537940096
_cell_formula_units_Z  2
loop_
  _symmetry_equiv_pos_site_id
 _symmetry_equiv_pos_as_xyz
 1  'x, y, z'
loop_
 _atom_site_type_symbol
 _atom_site_label
 _atom_site_symmetry_multiplicity
 _atom_site_fract_x
 _atom_site_fract_y
 _atom_site_fract_z
 _atom_site_fract_occupancy
 Ca  Ca1  1  0.78170  0.25000  0.56340  1
 Ca  Ca2  1  0.21830  0.75000  0.43660  1
 Ca  Ca3  1  0.62076  0.25000  0.24152  1
 Ca  Ca4  1  0.37924  0.75000  0.75848  1
 In  In1  1  0.95940  0.25000  0.91881  1
 In  In2  1  0.04060  0.75000  0.08119  1
 N  N1  1  0.19929  0.25000  0.39858  1
 N  N2  1  0.80071  0.75000  0.60142  1
