CIF file written using JARVIS-Tools package.
data_NdNi2Bi2
_symmetry_space_group_name_H-M  'P4/nmm'
_cell_length_a       4.66923
_cell_length_b       4.66923
_cell_length_c       10.1946
_cell_angle_alpha    90
_cell_angle_beta     90
_cell_angle_gamma    90

_symmetry_Int_Tables_number  129
_chemical_formula_structural  NdNi2Bi2
_chemical_formula_sum  Nd2Ni4Bi4
_cell_volume  222.2599180687845
_cell_formula_units_Z  2
loop_
  _symmetry_equiv_pos_site_id
 _symmetry_equiv_pos_as_xyz
 1  'x, y, z'
loop_
 _atom_site_type_symbol
 _atom_site_label
 _atom_site_symmetry_multiplicity
 _atom_site_fract_x
 _atom_site_fract_y
 _atom_site_fract_z
 _atom_site_fract_occupancy
 Bi  Bi1  1  0.00000  0.50000  0.12478  1
 Bi  Bi2  1  0.50000  0.00000  0.87522  1
 Bi  Bi3  1  0.50000  0.50000  0.50000  1
 Bi  Bi4  1  0.00000  0.00000  0.50000  1
 Nd  Nd1  1  0.00000  0.50000  0.77060  1
 Nd  Nd2  1  0.50000  0.00000  0.22940  1
 Ni  Ni1  1  0.00000  0.50000  0.37476  1
 Ni  Ni2  1  0.50000  0.00000  0.62524  1
 Ni  Ni3  1  0.50000  0.50000  0.00000  1
 Ni  Ni4  1  0.00000  0.00000  0.00000  1
