CIF file written using JARVIS-Tools package.
data_VW2O8
_symmetry_space_group_name_H-M  'P1'
_cell_length_a       4.86818
_cell_length_b       5.12283
_cell_length_c       6.43149
_cell_angle_alpha    110.945
_cell_angle_beta     88.9168
_cell_angle_gamma    104.615

_symmetry_Int_Tables_number  1
_chemical_formula_structural  VW2O8
_chemical_formula_sum  VW2O8
_cell_volume  144.49775066533644
_cell_formula_units_Z  1
loop_
  _symmetry_equiv_pos_site_id
 _symmetry_equiv_pos_as_xyz
 1  'x, y, z'
loop_
 _atom_site_type_symbol
 _atom_site_label
 _atom_site_symmetry_multiplicity
 _atom_site_fract_x
 _atom_site_fract_y
 _atom_site_fract_z
 _atom_site_fract_occupancy
 O  O1  1  0.61984  0.84319  0.66784  1
 O  O2  1  0.84886  0.35850  0.47820  1
 O  O3  1  0.60634  0.81572  0.18895  1
 O  O4  1  0.88277  0.32618  0.06721  1
 O  O5  1  0.10129  0.84050  0.96808  1
 O  O6  1  0.33001  0.35635  0.77851  1
 O  O7  1  0.34346  0.38320  0.25748  1
 O  O8  1  0.06755  0.87335  0.37912  1
 V  V1  1  0.97516  0.10015  0.22398  1
 W  W1  1  0.71218  0.63167  0.41753  1
 W  W2  1  0.23748  0.56781  0.02872  1
