CIF file written using JARVIS-Tools package.
data_CuCSN
_symmetry_space_group_name_H-M  'R3m'
_cell_length_a       11.2391
_cell_length_b       11.2391
_cell_length_c       11.2391
_cell_angle_alpha    19.5086
_cell_angle_beta     19.5086
_cell_angle_gamma    19.5087

_symmetry_Int_Tables_number  160
_chemical_formula_structural  CuCSN
_chemical_formula_sum  Cu2C2S2N2
_cell_volume  138.44145230319964
_cell_formula_units_Z  2
loop_
  _symmetry_equiv_pos_site_id
 _symmetry_equiv_pos_as_xyz
 1  'x, y, z'
loop_
 _atom_site_type_symbol
 _atom_site_label
 _atom_site_symmetry_multiplicity
 _atom_site_fract_x
 _atom_site_fract_y
 _atom_site_fract_z
 _atom_site_fract_occupancy
 C  C1  1  0.09360  0.09360  0.09360  1
 C  C2  1  0.59360  0.59360  0.59360  1
 Cu  Cu1  1  0.00084  0.00084  0.00084  1
 Cu  Cu2  1  0.50084  0.50084  0.50084  1
 N  N1  1  0.55811  0.55811  0.55811  1
 N  N2  1  0.05811  0.05811  0.05811  1
 S  S1  1  0.14379  0.14379  0.14379  1
 S  S2  1  0.64379  0.64379  0.64379  1
