CIF file written using JARVIS-Tools package.
data_LiCu2PO4
_symmetry_space_group_name_H-M  'P2_1'
_cell_length_a       5.39834
_cell_length_b       5.07651
_cell_length_c       6.31187
_cell_angle_alpha    90
_cell_angle_beta     94.2381
_cell_angle_gamma    90

_symmetry_Int_Tables_number  4
_chemical_formula_structural  LiCu2PO4
_chemical_formula_sum  Li2Cu4P2O8
_cell_volume  172.50216762393973
_cell_formula_units_Z  2
loop_
  _symmetry_equiv_pos_site_id
 _symmetry_equiv_pos_as_xyz
 1  'x, y, z'
loop_
 _atom_site_type_symbol
 _atom_site_label
 _atom_site_symmetry_multiplicity
 _atom_site_fract_x
 _atom_site_fract_y
 _atom_site_fract_z
 _atom_site_fract_occupancy
 Cu  Cu1  1  0.22141  0.48898  0.76410  1
 Cu  Cu2  1  0.77859  0.98898  0.23590  1
 Cu  Cu3  1  0.61911  0.43848  0.99375  1
 Cu  Cu4  1  0.38089  0.93848  0.00625  1
 Li  Li1  1  0.32895  0.01172  0.49420  1
 Li  Li2  1  0.67105  0.51172  0.50580  1
 O  O1  1  0.11870  0.92377  0.72159  1
 O  O2  1  0.82254  0.31415  0.74693  1
 O  O3  1  0.68407  0.90657  0.53207  1
 O  O4  1  0.31593  0.40657  0.46793  1
 O  O5  1  0.17746  0.81415  0.25307  1
 O  O6  1  0.88130  0.42377  0.27841  1
 O  O7  1  0.26307  0.37854  0.07031  1
 O  O8  1  0.73693  0.87854  0.92969  1
 P  P1  1  0.84451  0.00909  0.73196  1
 P  P2  1  0.15549  0.50909  0.26804  1
