CIF file written using JARVIS-Tools package.
data_HfGa2
_symmetry_space_group_name_H-M  'I4_1/amd'
_cell_length_a       4.04712
_cell_length_b       4.04712
_cell_length_c       13.1447
_cell_angle_alpha    98.8556
_cell_angle_beta     98.8556
_cell_angle_gamma    90

_symmetry_Int_Tables_number  141
_chemical_formula_structural  HfGa2
_chemical_formula_sum  Hf4Ga8
_cell_volume  210.13555421877473
_cell_formula_units_Z  4
loop_
  _symmetry_equiv_pos_site_id
 _symmetry_equiv_pos_as_xyz
 1  'x, y, z'
loop_
 _atom_site_type_symbol
 _atom_site_label
 _atom_site_symmetry_multiplicity
 _atom_site_fract_x
 _atom_site_fract_y
 _atom_site_fract_z
 _atom_site_fract_occupancy
 Ga  Ga1  1  0.37584  0.62584  0.25169  1
 Ga  Ga2  1  0.12584  0.87584  0.75169  1
 Ga  Ga3  1  0.62416  0.37416  0.74831  1
 Ga  Ga4  1  0.87416  0.12416  0.24831  1
 Ga  Ga5  1  0.53626  0.78626  0.57253  1
 Ga  Ga6  1  0.28626  0.03626  0.07253  1
 Ga  Ga7  1  0.46374  0.21374  0.42747  1
 Ga  Ga8  1  0.71374  0.96374  0.92747  1
 Hf  Hf1  1  0.20032  0.45032  0.90065  1
 Hf  Hf2  1  0.95032  0.70032  0.40065  1
 Hf  Hf3  1  0.79968  0.54968  0.09935  1
 Hf  Hf4  1  0.04968  0.29968  0.59935  1
