CIF file written using JARVIS-Tools package.
data_Na2VBAsO7
_symmetry_space_group_name_H-M  'P2_1/m'
_cell_length_a       5.48903
_cell_length_b       6.56538
_cell_length_c       9.16686
_cell_angle_alpha    90
_cell_angle_beta     92.6056
_cell_angle_gamma    90

_symmetry_Int_Tables_number  11
_chemical_formula_structural  Na2VBAsO7
_chemical_formula_sum  Na4V2B2As2O4
_cell_volume  330.0098564901765
_cell_formula_units_Z  2
loop_
  _symmetry_equiv_pos_site_id
 _symmetry_equiv_pos_as_xyz
 1  'x, y, z'
loop_
 _atom_site_type_symbol
 _atom_site_label
 _atom_site_symmetry_multiplicity
 _atom_site_fract_x
 _atom_site_fract_y
 _atom_site_fract_z
 _atom_site_fract_occupancy
 As  As1  1  0.28073  0.75000  0.43874  1
 As  As2  1  0.71927  0.25000  0.56126  1
 B  B1  1  0.28873  0.25000  0.07412  1
 B  B2  1  0.71127  0.75000  0.92588  1
 Na  Na1  1  0.77115  0.00613  0.20663  1
 Na  Na2  1  0.77115  0.49387  0.20663  1
 Na  Na3  1  0.22885  0.50613  0.79337  1
 Na  Na4  1  0.22885  0.99387  0.79337  1
 O  O1  1  0.66462  0.75000  0.06414  1
 O  O2  1  0.94104  0.75000  0.85978  1
 O  O3  1  0.46520  0.25000  0.19653  1
 O  O4  1  0.19255  0.95588  0.33255  1
 O  O5  1  0.19255  0.54412  0.33255  1
 O  O6  1  0.05896  0.25000  0.14022  1
 O  O7  1  0.59334  0.75000  0.47399  1
 O  O8  1  0.80745  0.04412  0.66745  1
 O  O9  1  0.12858  0.75000  0.59700  1
 O  O10  1  0.80745  0.45588  0.66745  1
 O  O11  1  0.87142  0.25000  0.40300  1
 O  O12  1  0.53480  0.75000  0.80347  1
 O  O13  1  0.40666  0.25000  0.52601  1
 O  O14  1  0.33538  0.25000  0.93586  1
 V  V1  1  0.78152  0.75000  0.67025  1
 V  V2  1  0.21848  0.25000  0.32975  1
