CIF file written using JARVIS-Tools package.
data_Nb4CrSe8
_symmetry_space_group_name_H-M  'P6_3/mmc'
_cell_length_a       6.94489
_cell_length_b       6.94489
_cell_length_c       13.2703
_cell_angle_alpha    90
_cell_angle_beta     90
_cell_angle_gamma    120

_symmetry_Int_Tables_number  194
_chemical_formula_structural  Nb4CrSe8
_chemical_formula_sum  Nb8Cr2Se6
_cell_volume  554.2960461246387
_cell_formula_units_Z  2
loop_
  _symmetry_equiv_pos_site_id
 _symmetry_equiv_pos_as_xyz
 1  'x, y, z'
loop_
 _atom_site_type_symbol
 _atom_site_label
 _atom_site_symmetry_multiplicity
 _atom_site_fract_x
 _atom_site_fract_y
 _atom_site_fract_z
 _atom_site_fract_occupancy
 Cr  Cr1  1  0.00000  0.00000  0.25000  1
 Cr  Cr2  1  0.00000  0.00000  0.75000  1
 Nb  Nb1  1  0.00000  0.00000  0.50000  1
 Nb  Nb2  1  0.50000  -0.00000  0.00000  1
 Nb  Nb3  1  0.00000  0.50000  0.50000  1
 Nb  Nb4  1  0.00000  0.00000  0.00000  1
 Nb  Nb5  1  0.50000  0.50000  0.00000  1
 Nb  Nb6  1  0.00000  0.50000  0.00000  1
 Nb  Nb7  1  0.50000  -0.00000  0.50000  1
 Nb  Nb8  1  0.50000  0.50000  0.50000  1
 Se  Se1  1  0.16556  0.33111  0.37002  1
 Se  Se2  1  0.66889  0.83444  0.12998  1
 Se  Se3  1  0.33111  0.16556  0.62998  1
 Se  Se4  1  0.16556  0.83444  0.37002  1
 Se  Se5  1  0.83444  0.16556  0.62998  1
 Se  Se6  1  0.16556  0.83444  0.12998  1
 Se  Se7  1  0.83444  0.66889  0.62998  1
 Se  Se8  1  0.83444  0.66889  0.87002  1
 Se  Se9  1  0.66667  0.33333  0.37449  1
 Se  Se10  1  0.33333  0.66667  0.87449  1
 Se  Se11  1  0.33333  0.66667  0.62551  1
 Se  Se12  1  0.66667  0.33333  0.12551  1
 Se  Se13  1  0.83444  0.16556  0.87002  1
 Se  Se14  1  0.66889  0.83444  0.37002  1
 Se  Se15  1  0.16556  0.33111  0.12998  1
 Se  Se16  1  0.33111  0.16556  0.87002  1
