CIF file written using JARVIS-Tools package.
data_Mn3F8
_symmetry_space_group_name_H-M  'Cmc2_1'
_cell_length_a       6.38783
_cell_length_b       6.38784
_cell_length_c       8.54594
_cell_angle_alpha    90.0001
_cell_angle_beta     89.9999
_cell_angle_gamma    59.5312

_symmetry_Int_Tables_number  36
_chemical_formula_structural  Mn3F8
_chemical_formula_sum  Mn6F6
_cell_volume  300.5570827876926
_cell_formula_units_Z  2
loop_
  _symmetry_equiv_pos_site_id
 _symmetry_equiv_pos_as_xyz
 1  'x, y, z'
loop_
 _atom_site_type_symbol
 _atom_site_label
 _atom_site_symmetry_multiplicity
 _atom_site_fract_x
 _atom_site_fract_y
 _atom_site_fract_z
 _atom_site_fract_occupancy
 F  F1  1  0.29398  0.86544  0.64759  1
 F  F2  1  0.00208  0.00206  0.38079  1
 F  F3  1  0.99794  0.99792  0.88079  1
 F  F4  1  0.14583  0.14577  0.14719  1
 F  F5  1  0.04499  0.46837  0.85804  1
 F  F6  1  0.95500  0.53162  0.35804  1
 F  F7  1  0.46838  0.04500  0.85804  1
 F  F8  1  0.13456  0.70602  0.14759  1
 F  F9  1  0.47880  0.47880  0.85859  1
 F  F10  1  0.70607  0.13453  0.14759  1
 F  F11  1  0.85423  0.85417  0.64719  1
 F  F12  1  0.52120  0.52120  0.35859  1
 F  F13  1  0.66266  0.66263  0.11917  1
 F  F14  1  0.53163  0.95501  0.35804  1
 F  F15  1  0.86547  0.29393  0.64759  1
 F  F16  1  0.33737  0.33734  0.61917  1
 Mn  Mn1  1  0.83207  0.83205  0.25248  1
 Mn  Mn2  1  0.83205  0.33344  0.25153  1
 Mn  Mn3  1  0.66656  0.16795  0.75153  1
 Mn  Mn4  1  0.33346  0.83203  0.25154  1
 Mn  Mn5  1  0.16797  0.66654  0.75154  1
 Mn  Mn6  1  0.16795  0.16793  0.75248  1
