CIF file written using JARVIS-Tools package.
data_LiCoSiO4
_symmetry_space_group_name_H-M  'Pc'
_cell_length_a       5.0072
_cell_length_b       5.38551
_cell_length_c       6.25563
_cell_angle_alpha    90.0002
_cell_angle_beta     91.1507
_cell_angle_gamma    89.9999

_symmetry_Int_Tables_number  7
_chemical_formula_structural  LiCoSiO4
_chemical_formula_sum  Li2Co2Si2O8
_cell_volume  168.65707826421783
_cell_formula_units_Z  2
loop_
  _symmetry_equiv_pos_site_id
 _symmetry_equiv_pos_as_xyz
 1  'x, y, z'
loop_
 _atom_site_type_symbol
 _atom_site_label
 _atom_site_symmetry_multiplicity
 _atom_site_fract_x
 _atom_site_fract_y
 _atom_site_fract_z
 _atom_site_fract_occupancy
 Co  Co1  1  0.99793  0.17102  0.98922  1
 Co  Co2  1  0.49792  0.82898  0.48922  1
 Li  Li1  1  0.99791  0.66482  0.73813  1
 Li  Li2  1  0.49791  0.33518  0.23812  1
 O  O1  1  0.66324  0.66625  0.26350  1
 O  O2  1  0.62500  0.21358  0.95842  1
 O  O3  1  0.55968  0.16675  0.51940  1
 O  O4  1  0.60747  0.61348  0.70809  1
 O  O5  1  0.16325  0.33376  0.76350  1
 O  O6  1  0.12500  0.78642  0.45842  1
 O  O7  1  0.05968  0.83325  0.01941  1
 O  O8  1  0.10747  0.38653  0.20809  1
 Si  Si1  1  0.99066  0.67133  0.23658  1
 Si  Si2  1  0.49066  0.32867  0.73658  1
