CIF file written using JARVIS-Tools package.
data_O
_symmetry_space_group_name_H-M  'Pbca'
_cell_length_a       6.49109
_cell_length_b       6.72462
_cell_length_c       7.57754
_cell_angle_alpha    90
_cell_angle_beta     90
_cell_angle_gamma    90

_symmetry_Int_Tables_number  61
_chemical_formula_structural  O
_chemical_formula_sum  O24
_cell_volume  330.7608592213457
_cell_formula_units_Z  24
loop_
  _symmetry_equiv_pos_site_id
 _symmetry_equiv_pos_as_xyz
 1  'x, y, z'
loop_
 _atom_site_type_symbol
 _atom_site_label
 _atom_site_symmetry_multiplicity
 _atom_site_fract_x
 _atom_site_fract_y
 _atom_site_fract_z
 _atom_site_fract_occupancy
 O  O1  1  0.76979  0.36835  0.01438  1
 O  O2  1  0.46180  0.96120  0.68090  1
 O  O3  1  0.26979  0.13165  0.98562  1
 O  O4  1  0.73021  0.63165  0.51438  1
 O  O5  1  0.26979  0.36835  0.48562  1
 O  O6  1  0.15936  0.17447  0.12101  1
 O  O7  1  0.65936  0.17447  0.37899  1
 O  O8  1  0.03820  0.03880  0.18090  1
 O  O9  1  0.96180  0.53880  0.31910  1
 O  O10  1  0.03820  0.46120  0.68090  1
 O  O11  1  0.53820  0.03880  0.31910  1
 O  O12  1  0.76979  0.13165  0.51438  1
 O  O13  1  0.23021  0.63165  0.98562  1
 O  O14  1  0.96180  0.96120  0.81910  1
 O  O15  1  0.46180  0.53880  0.18090  1
 O  O16  1  0.65936  0.32553  0.87899  1
 O  O17  1  0.34064  0.82553  0.62101  1
 O  O18  1  0.73021  0.86835  0.01438  1
 O  O19  1  0.84064  0.67447  0.37899  1
 O  O20  1  0.15936  0.32553  0.62101  1
 O  O21  1  0.23021  0.86835  0.48562  1
 O  O22  1  0.53820  0.46120  0.81910  1
 O  O23  1  0.84064  0.82553  0.87899  1
 O  O24  1  0.34064  0.67447  0.12101  1
