CIF file written using JARVIS-Tools package.
data_PuBe13
_symmetry_space_group_name_H-M  'Fm-3c'
_cell_length_a       7.21905
_cell_length_b       7.21905
_cell_length_c       7.21905
_cell_angle_alpha    60
_cell_angle_beta     60
_cell_angle_gamma    60

_symmetry_Int_Tables_number  226
_chemical_formula_structural  PuBe13
_chemical_formula_sum  Pu2Be26
_cell_volume  266.0269037982686
_cell_formula_units_Z  2
loop_
  _symmetry_equiv_pos_site_id
 _symmetry_equiv_pos_as_xyz
 1  'x, y, z'
loop_
 _atom_site_type_symbol
 _atom_site_label
 _atom_site_symmetry_multiplicity
 _atom_site_fract_x
 _atom_site_fract_y
 _atom_site_fract_z
 _atom_site_fract_occupancy
 Be  Be1  1  0.06156  0.93844  0.70972  1
 Be  Be2  1  0.50000  0.50000  0.50000  1
 Be  Be3  1  0.29028  0.93844  0.06156  1
 Be  Be4  1  0.56156  0.43844  0.79028  1
 Be  Be5  1  0.79028  0.20972  0.56156  1
 Be  Be6  1  0.56156  0.79028  0.20972  1
 Be  Be7  1  0.43844  0.20972  0.79028  1
 Be  Be8  1  0.43844  0.79028  0.56156  1
 Be  Be9  1  0.79028  0.43844  0.20972  1
 Be  Be10  1  0.06156  0.29028  0.93844  1
 Be  Be11  1  0.93844  0.06156  0.29028  1
 Be  Be12  1  0.70972  0.29028  0.06156  1
 Be  Be13  1  0.00000  0.00000  0.00000  1
 Be  Be14  1  0.70972  0.93844  0.29028  1
 Be  Be15  1  0.29028  0.06156  0.70972  1
 Be  Be16  1  0.29028  0.70972  0.93844  1
 Be  Be17  1  0.79028  0.56156  0.43844  1
 Be  Be18  1  0.20972  0.79028  0.43844  1
 Be  Be19  1  0.20972  0.56156  0.79028  1
 Be  Be20  1  0.56156  0.20972  0.43844  1
 Be  Be21  1  0.43844  0.56156  0.20972  1
 Be  Be22  1  0.20972  0.43844  0.56156  1
 Be  Be23  1  0.06156  0.70972  0.29028  1
 Be  Be24  1  0.70972  0.06156  0.93844  1
 Be  Be25  1  0.93844  0.29028  0.70972  1
 Be  Be26  1  0.93844  0.70972  0.06156  1
 Pu  Pu1  1  0.25000  0.25000  0.25000  1
 Pu  Pu2  1  0.75000  0.75000  0.75000  1
