CIF file written using JARVIS-Tools package.
data_NiSb2O6
_symmetry_space_group_name_H-M  'P4_2/mnm'
_cell_length_a       4.69316
_cell_length_b       4.69316
_cell_length_c       9.38681
_cell_angle_alpha    90
_cell_angle_beta     90
_cell_angle_gamma    90

_symmetry_Int_Tables_number  136
_chemical_formula_structural  NiSb2O6
_chemical_formula_sum  Ni2Sb4O2
_cell_volume  206.75174469852107
_cell_formula_units_Z  2
loop_
  _symmetry_equiv_pos_site_id
 _symmetry_equiv_pos_as_xyz
 1  'x, y, z'
loop_
 _atom_site_type_symbol
 _atom_site_label
 _atom_site_symmetry_multiplicity
 _atom_site_fract_x
 _atom_site_fract_y
 _atom_site_fract_z
 _atom_site_fract_occupancy
 Ni  Ni1  1  0.00000  0.00000  0.00000  1
 Ni  Ni2  1  0.50000  0.50000  0.50000  1
 O  O1  1  0.69545  0.69545  0.66899  1
 O  O2  1  0.30455  0.30455  0.66899  1
 O  O3  1  0.30455  0.30455  0.33101  1
 O  O4  1  0.19545  0.80455  0.16899  1
 O  O5  1  0.69545  0.69545  0.33101  1
 O  O6  1  0.80455  0.19545  0.83101  1
 O  O7  1  0.30686  0.30686  0.00000  1
 O  O8  1  0.19314  0.80686  0.50000  1
 O  O9  1  0.80686  0.19314  0.50000  1
 O  O10  1  0.19545  0.80455  0.83101  1
 O  O11  1  0.80455  0.19545  0.16899  1
 O  O12  1  0.69314  0.69314  0.00000  1
 Sb  Sb1  1  0.00000  0.00000  0.66731  1
 Sb  Sb2  1  0.50000  0.50000  0.16731  1
 Sb  Sb3  1  0.50000  0.50000  0.83269  1
 Sb  Sb4  1  0.00000  0.00000  0.33269  1
