CIF file written using JARVIS-Tools package.
data_Sr3NiPtO6
_symmetry_space_group_name_H-M  'R-3c'
_cell_length_a       6.70978
_cell_length_b       6.70977
_cell_length_c       6.70978
_cell_angle_alpha    91.3411
_cell_angle_beta     91.3411
_cell_angle_gamma    91.3411

_symmetry_Int_Tables_number  167
_chemical_formula_structural  Sr3NiPtO6
_chemical_formula_sum  Sr6Ni2Pt2O2
_cell_volume  301.82961364219267
_cell_formula_units_Z  2
loop_
  _symmetry_equiv_pos_site_id
 _symmetry_equiv_pos_as_xyz
 1  'x, y, z'
loop_
 _atom_site_type_symbol
 _atom_site_label
 _atom_site_symmetry_multiplicity
 _atom_site_fract_x
 _atom_site_fract_y
 _atom_site_fract_z
 _atom_site_fract_occupancy
 Ni  Ni1  1  0.75000  0.75000  0.75000  1
 Ni  Ni2  1  0.25000  0.25000  0.25000  1
 O  O1  1  0.09116  0.28816  0.96345  1
 O  O2  1  0.59116  0.46345  0.78816  1
 O  O3  1  0.46345  0.78816  0.59116  1
 O  O4  1  0.03655  0.90884  0.71184  1
 O  O5  1  0.90884  0.71184  0.03655  1
 O  O6  1  0.71184  0.03655  0.90884  1
 O  O7  1  0.21184  0.40884  0.53655  1
 O  O8  1  0.40884  0.53655  0.21184  1
 O  O9  1  0.53655  0.21184  0.40884  1
 O  O10  1  0.28816  0.96345  0.09116  1
 O  O11  1  0.96345  0.09116  0.28816  1
 O  O12  1  0.78816  0.59116  0.46345  1
 Pt  Pt1  1  0.00000  0.00000  0.00000  1
 Pt  Pt2  1  0.50000  0.50000  0.50000  1
 Sr  Sr1  1  0.25000  0.61398  0.88602  1
 Sr  Sr2  1  0.61398  0.88602  0.25000  1
 Sr  Sr3  1  0.11398  0.75000  0.38602  1
 Sr  Sr4  1  0.75000  0.38602  0.11398  1
 Sr  Sr5  1  0.38602  0.11398  0.75000  1
 Sr  Sr6  1  0.88602  0.25000  0.61398  1
