CIF file written using JARVIS-Tools package.
data_Sm3Sb5O12
_symmetry_space_group_name_H-M  'I-43m'
_cell_length_a       9.50755
_cell_length_b       9.50755
_cell_length_c       9.50755
_cell_angle_alpha    109.471
_cell_angle_beta     109.471
_cell_angle_gamma    109.471

_symmetry_Int_Tables_number  217
_chemical_formula_structural  Sm3Sb5O12
_chemical_formula_sum  Sm6Sb0O24
_cell_volume  661.5822246040705
_cell_formula_units_Z  2
loop_
  _symmetry_equiv_pos_site_id
 _symmetry_equiv_pos_as_xyz
 1  'x, y, z'
loop_
 _atom_site_type_symbol
 _atom_site_label
 _atom_site_symmetry_multiplicity
 _atom_site_fract_x
 _atom_site_fract_y
 _atom_site_fract_z
 _atom_site_fract_occupancy
 O  O1  1  0.00000  0.50841  0.70849  1
 O  O2  1  0.52409  0.52409  0.72335  1
 O  O3  1  0.52409  0.72335  0.52409  1
 O  O4  1  0.19926  0.00000  0.47591  1
 O  O5  1  0.19926  0.47591  -0.00000  1
 O  O6  1  0.00000  0.19926  0.47591  1
 O  O7  1  -0.00000  0.47591  0.19926  1
 O  O8  1  0.47591  0.19926  -0.00000  1
 O  O9  1  0.50841  0.00000  0.70849  1
 O  O10  1  0.29151  0.79992  0.29151  1
 O  O11  1  0.47591  0.00000  0.19926  1
 O  O12  1  0.72335  0.52409  0.52409  1
 O  O13  1  0.79992  0.29151  0.29151  1
 O  O14  1  0.49159  0.49159  0.20008  1
 O  O15  1  0.49159  0.20008  0.49159  1
 O  O16  1  0.70849  0.00000  0.50841  1
 O  O17  1  0.20008  0.49159  0.49159  1
 O  O18  1  0.80074  0.80074  0.27665  1
 O  O19  1  0.27665  0.80074  0.80074  1
 O  O20  1  0.29151  0.29151  0.79992  1
 O  O21  1  -0.00000  0.70849  0.50841  1
 O  O22  1  0.70849  0.50841  -0.00000  1
 O  O23  1  0.50841  0.70849  -0.00000  1
 O  O24  1  0.80074  0.27665  0.80074  1
 Sb  Sb1  1  0.27899  0.27899  0.00000  1
 Sb  Sb2  1  0.72101  0.72101  -0.00000  1
 Sb  Sb3  1  0.00000  0.72101  0.72101  1
 Sb  Sb4  1  0.72101  0.00000  0.72101  1
 Sb  Sb5  1  -0.00000  0.27899  0.27899  1
 Sb  Sb6  1  0.51333  -0.00000  0.00000  1
 Sb  Sb7  1  -0.00000  0.51333  -0.00000  1
 Sb  Sb8  1  0.00000  0.00000  0.51333  1
 Sb  Sb9  1  0.27899  -0.00000  0.27899  1
 Sb  Sb10  1  0.48667  0.48667  0.48667  1
 Sm  Sm1  1  0.75000  0.25000  0.50000  1
 Sm  Sm2  1  0.25000  0.50000  0.75000  1
 Sm  Sm3  1  0.75000  0.50000  0.25000  1
 Sm  Sm4  1  0.25000  0.75000  0.50000  1
 Sm  Sm5  1  0.50000  0.75000  0.25000  1
 Sm  Sm6  1  0.50000  0.25000  0.75000  1
