CIF file written using JARVIS-Tools package.
data_YbMgAu
_symmetry_space_group_name_H-M  'Pnma'
_cell_length_a       4.30845
_cell_length_b       7.31907
_cell_length_c       8.65034
_cell_angle_alpha    90
_cell_angle_beta     90
_cell_angle_gamma    90

_symmetry_Int_Tables_number  62
_chemical_formula_structural  YbMgAu
_chemical_formula_sum  Yb4Mg4Au4
_cell_volume  272.7786529999889
_cell_formula_units_Z  4
loop_
  _symmetry_equiv_pos_site_id
 _symmetry_equiv_pos_as_xyz
 1  'x, y, z'
loop_
 _atom_site_type_symbol
 _atom_site_label
 _atom_site_symmetry_multiplicity
 _atom_site_fract_x
 _atom_site_fract_y
 _atom_site_fract_z
 _atom_site_fract_occupancy
 Au  Au1  1  0.25000  0.75890  0.87057  1
 Au  Au2  1  0.25000  0.25890  0.62943  1
 Au  Au3  1  0.75000  0.74110  0.37057  1
 Au  Au4  1  0.75000  0.24110  0.12943  1
 Mg  Mg1  1  0.25000  0.63707  0.56094  1
 Mg  Mg2  1  0.25000  0.13707  0.93906  1
 Mg  Mg3  1  0.75000  0.36293  0.43906  1
 Mg  Mg4  1  0.75000  0.86293  0.06094  1
 Yb  Yb1  1  0.75000  0.46210  0.82598  1
 Yb  Yb2  1  0.25000  0.03790  0.32598  1
 Yb  Yb3  1  0.75000  0.96210  0.67402  1
 Yb  Yb4  1  0.25000  0.53790  0.17402  1
