CIF file written using JARVIS-Tools package.
data_SrNi3Ge2
_symmetry_space_group_name_H-M  'P6_3/mmc'
_cell_length_a       4.06713
_cell_length_b       4.06713
_cell_length_c       14.1697
_cell_angle_alpha    90
_cell_angle_beta     90
_cell_angle_gamma    120

_symmetry_Int_Tables_number  194
_chemical_formula_structural  SrNi3Ge2
_chemical_formula_sum  Sr2Ni6Ge4
_cell_volume  202.98677450522555
_cell_formula_units_Z  2
loop_
  _symmetry_equiv_pos_site_id
 _symmetry_equiv_pos_as_xyz
 1  'x, y, z'
loop_
 _atom_site_type_symbol
 _atom_site_label
 _atom_site_symmetry_multiplicity
 _atom_site_fract_x
 _atom_site_fract_y
 _atom_site_fract_z
 _atom_site_fract_occupancy
 Ge  Ge1  1  0.33333  0.66667  0.40275  1
 Ge  Ge2  1  0.66667  0.33333  0.59725  1
 Ge  Ge3  1  0.66667  0.33333  0.90275  1
 Ge  Ge4  1  0.33333  0.66667  0.09725  1
 Ni  Ni1  1  0.00000  0.00000  0.50000  1
 Ni  Ni2  1  0.00000  0.00000  0.00000  1
 Ni  Ni3  1  0.33333  0.66667  0.57240  1
 Ni  Ni4  1  0.66667  0.33333  0.07240  1
 Ni  Ni5  1  0.33333  0.66667  0.92760  1
 Ni  Ni6  1  0.66667  0.33333  0.42760  1
 Sr  Sr1  1  0.00000  0.00000  0.25000  1
 Sr  Sr2  1  0.00000  0.00000  0.75000  1
