CIF file written using JARVIS-Tools package.
data_K2Cd3S4
_symmetry_space_group_name_H-M  'Pnma'
_cell_length_a       6.70284
_cell_length_b       10.2332
_cell_length_c       13.7943
_cell_angle_alpha    90
_cell_angle_beta     90
_cell_angle_gamma    90

_symmetry_Int_Tables_number  62
_chemical_formula_structural  K2Cd3S4
_chemical_formula_sum  K8Cd2S6
_cell_volume  946.1724874370027
_cell_formula_units_Z  4
loop_
  _symmetry_equiv_pos_site_id
 _symmetry_equiv_pos_as_xyz
 1  'x, y, z'
loop_
 _atom_site_type_symbol
 _atom_site_label
 _atom_site_symmetry_multiplicity
 _atom_site_fract_x
 _atom_site_fract_y
 _atom_site_fract_z
 _atom_site_fract_occupancy
 Cd  Cd1  1  0.84054  0.90906  0.75060  1
 Cd  Cd2  1  0.15946  0.09094  0.24940  1
 Cd  Cd3  1  0.34054  0.09094  0.74940  1
 Cd  Cd4  1  0.65946  0.59094  0.25060  1
 Cd  Cd5  1  0.15946  0.40906  0.24940  1
 Cd  Cd6  1  0.65946  0.90906  0.25060  1
 Cd  Cd7  1  0.21573  0.75000  0.20269  1
 Cd  Cd8  1  0.34054  0.40906  0.74940  1
 Cd  Cd9  1  0.78427  0.25000  0.79731  1
 Cd  Cd10  1  0.28427  0.75000  0.70269  1
 Cd  Cd11  1  0.71573  0.25000  0.29731  1
 Cd  Cd12  1  0.84054  0.59094  0.75060  1
 K  K1  1  0.01663  0.25000  0.53208  1
 K  K2  1  0.00000  0.50000  0.00000  1
 K  K3  1  0.50000  0.50000  0.50000  1
 K  K4  1  0.00000  0.00000  0.00000  1
 K  K5  1  0.48337  0.25000  0.03208  1
 K  K6  1  0.98337  0.75000  0.46792  1
 K  K7  1  0.51663  0.75000  0.96792  1
 K  K8  1  0.50000  0.00000  0.50000  1
 S  S1  1  0.13616  0.25000  0.85916  1
 S  S2  1  0.62013  0.03072  0.86793  1
 S  S3  1  0.12013  0.96928  0.63207  1
 S  S4  1  0.37987  0.53072  0.13207  1
 S  S5  1  0.87987  0.46928  0.36793  1
 S  S6  1  0.87987  0.03072  0.36793  1
 S  S7  1  0.37987  0.96928  0.13207  1
 S  S8  1  0.42496  0.75000  0.35837  1
 S  S9  1  0.92496  0.25000  0.14163  1
 S  S10  1  0.07504  0.75000  0.85837  1
 S  S11  1  0.57504  0.25000  0.64163  1
 S  S12  1  0.86384  0.75000  0.14084  1
 S  S13  1  0.63616  0.75000  0.64084  1
 S  S14  1  0.62013  0.46928  0.86793  1
 S  S15  1  0.12013  0.53072  0.63207  1
 S  S16  1  0.36384  0.25000  0.35916  1
