CIF file written using JARVIS-Tools package.
data_AgTeO3
_symmetry_space_group_name_H-M  'P2_1/c'
_cell_length_a       6.54417
_cell_length_b       7.02067
_cell_length_c       13.4258
_cell_angle_alpha    90
_cell_angle_beta     90.7258
_cell_angle_gamma    90

_symmetry_Int_Tables_number  14
_chemical_formula_structural  AgTeO3
_chemical_formula_sum  Ag8Te8O24
_cell_volume  616.789950211961
_cell_formula_units_Z  8
loop_
  _symmetry_equiv_pos_site_id
 _symmetry_equiv_pos_as_xyz
 1  'x, y, z'
loop_
 _atom_site_type_symbol
 _atom_site_label
 _atom_site_symmetry_multiplicity
 _atom_site_fract_x
 _atom_site_fract_y
 _atom_site_fract_z
 _atom_site_fract_occupancy
 Ag  Ag1  1  0.48016  0.17126  0.07751  1
 Ag  Ag2  1  0.48016  0.32874  0.57751  1
 Ag  Ag3  1  0.54537  0.43718  0.82071  1
 Ag  Ag4  1  0.51984  0.67126  0.42249  1
 Ag  Ag5  1  0.45463  0.56282  0.17929  1
 Ag  Ag6  1  0.54537  0.06282  0.32071  1
 Ag  Ag7  1  0.51984  0.82874  0.92249  1
 Ag  Ag8  1  0.45463  0.93718  0.67929  1
 O  O1  1  0.42231  0.14636  0.86257  1
 O  O2  1  0.17247  0.44523  0.83740  1
 O  O3  1  0.57769  0.64636  0.63743  1
 O  O4  1  0.80731  0.64486  0.80108  1
 O  O5  1  0.17247  0.05477  0.33740  1
 O  O6  1  0.80459  0.32947  0.63403  1
 O  O7  1  0.80459  0.17053  0.13403  1
 O  O8  1  0.19269  0.35514  0.19892  1
 O  O9  1  0.57769  0.85364  0.13743  1
 O  O10  1  0.83986  0.41530  0.96382  1
 O  O11  1  0.83986  0.08470  0.46382  1
 O  O12  1  0.83784  0.68154  0.48114  1
 O  O13  1  0.16014  0.91530  0.53618  1
 O  O14  1  0.19541  0.67053  0.36597  1
 O  O15  1  0.16216  0.18154  0.01886  1
 O  O16  1  0.19269  0.14486  0.69892  1
 O  O17  1  0.19541  0.82947  0.86597  1
 O  O18  1  0.82753  0.94523  0.66260  1
 O  O19  1  0.82753  0.55477  0.16260  1
 O  O20  1  0.16216  0.31846  0.51886  1
 O  O21  1  0.42231  0.35364  0.36257  1
 O  O22  1  0.80731  0.85514  0.30108  1
 O  O23  1  0.83784  0.81846  0.98114  1
 O  O24  1  0.16014  0.58470  0.03618  1
 Te  Te1  1  0.99124  0.36471  0.09151  1
 Te  Te2  1  0.99124  0.13529  0.59151  1
 Te  Te3  1  0.86472  0.84561  0.14171  1
 Te  Te4  1  0.86472  0.65439  0.64171  1
 Te  Te5  1  0.00876  0.63529  0.90849  1
 Te  Te6  1  0.13528  0.34561  0.35829  1
 Te  Te7  1  0.00876  0.86471  0.40849  1
 Te  Te8  1  0.13528  0.15439  0.85829  1
