CIF file written using JARVIS-Tools package.
data_NbIO2
_symmetry_space_group_name_H-M  'Pnma'
_cell_length_a       3.81926
_cell_length_b       3.96247
_cell_length_c       21.0374
_cell_angle_alpha    90
_cell_angle_beta     90
_cell_angle_gamma    90

_symmetry_Int_Tables_number  62
_chemical_formula_structural  NbIO2
_chemical_formula_sum  Nb4I4O8
_cell_volume  318.373183487805
_cell_formula_units_Z  4
loop_
  _symmetry_equiv_pos_site_id
 _symmetry_equiv_pos_as_xyz
 1  'x, y, z'
loop_
 _atom_site_type_symbol
 _atom_site_label
 _atom_site_symmetry_multiplicity
 _atom_site_fract_x
 _atom_site_fract_y
 _atom_site_fract_z
 _atom_site_fract_occupancy
 I  I1  1  0.25000  0.99699  0.67576  1
 I  I2  1  0.75000  0.00301  0.32424  1
 I  I3  1  0.25000  0.50301  0.17576  1
 I  I4  1  0.75000  0.49699  0.82424  1
 Nb  Nb1  1  0.25000  0.54268  0.93286  1
 Nb  Nb2  1  0.75000  0.04268  0.56714  1
 Nb  Nb3  1  0.75000  0.45732  0.06714  1
 Nb  Nb4  1  0.25000  0.95732  0.43286  1
 O  O1  1  0.25000  0.49477  0.42583  1
 O  O2  1  0.75000  0.50523  0.57417  1
 O  O3  1  0.25000  0.00523  0.92583  1
 O  O4  1  0.75000  0.00559  0.46767  1
 O  O5  1  0.25000  0.99441  0.53233  1
 O  O6  1  0.25000  0.50559  0.03233  1
 O  O7  1  0.75000  0.99477  0.07417  1
 O  O8  1  0.75000  0.49441  0.96767  1
