CIF file written using JARVIS-Tools package.
data_CaSnS3
_symmetry_space_group_name_H-M  'P6_3/mmc'
_cell_length_a       6.31597
_cell_length_b       6.66344
_cell_length_c       6.66344
_cell_angle_alpha    120
_cell_angle_beta     90
_cell_angle_gamma    90

_symmetry_Int_Tables_number  194
_chemical_formula_structural  CaSnS3
_chemical_formula_sum  Ca2Sn2S6
_cell_volume  242.8660504683158
_cell_formula_units_Z  2
loop_
  _symmetry_equiv_pos_site_id
 _symmetry_equiv_pos_as_xyz
 1  'x, y, z'
loop_
 _atom_site_type_symbol
 _atom_site_label
 _atom_site_symmetry_multiplicity
 _atom_site_fract_x
 _atom_site_fract_y
 _atom_site_fract_z
 _atom_site_fract_occupancy
 Ca  Ca1  1  0.25000  0.66673  0.33327  1
 Ca  Ca2  1  0.75000  0.33327  0.66673  1
 S  S1  1  0.25000  0.17429  0.82571  1
 S  S2  1  0.25000  0.65141  0.82573  1
 S  S3  1  0.25000  0.17427  0.34859  1
 S  S4  1  0.75000  0.82571  0.17429  1
 S  S5  1  0.75000  0.34859  0.17427  1
 S  S6  1  0.75000  0.82573  0.65141  1
 Sn  Sn1  1  0.00000  0.00000  0.00000  1
 Sn  Sn2  1  0.50000  0.00000  0.00000  1
