CIF file written using JARVIS-Tools package.
data_U2MnN3
_symmetry_space_group_name_H-M  'Immm'
_cell_length_a       3.30478
_cell_length_b       3.75067
_cell_length_c       6.56385
_cell_angle_alpha    106.597
_cell_angle_beta     104.582
_cell_angle_gamma    90.002

_symmetry_Int_Tables_number  71
_chemical_formula_structural  U2MnN3
_chemical_formula_sum  U2MnN3
_cell_volume  75.23141498602975
_cell_formula_units_Z  1
loop_
  _symmetry_equiv_pos_site_id
 _symmetry_equiv_pos_as_xyz
 1  'x, y, z'
loop_
 _atom_site_type_symbol
 _atom_site_label
 _atom_site_symmetry_multiplicity
 _atom_site_fract_x
 _atom_site_fract_y
 _atom_site_fract_z
 _atom_site_fract_occupancy
 Mn  Mn1  1  0.00000  0.00000  0.00000  1
 N  N1  1  0.16808  0.16808  0.33615  1
 N  N2  1  0.83192  0.83192  0.66385  1
 N  N3  1  0.00000  0.50000  -0.00000  1
 U  U1  1  0.35618  0.35616  0.71236  1
 U  U2  1  0.64382  0.64384  0.28764  1
