CIF file written using JARVIS-Tools package.
data_V4S9Br4
_symmetry_space_group_name_H-M  'P4/nmm'
_cell_length_a       7.06409
_cell_length_b       10.8127
_cell_length_c       10.8127
_cell_angle_alpha    90
_cell_angle_beta     90
_cell_angle_gamma    90

_symmetry_Int_Tables_number  129
_chemical_formula_structural  V4S9Br4
_chemical_formula_sum  V8S8Br8
_cell_volume  825.9011842125174
_cell_formula_units_Z  2
loop_
  _symmetry_equiv_pos_site_id
 _symmetry_equiv_pos_as_xyz
 1  'x, y, z'
loop_
 _atom_site_type_symbol
 _atom_site_label
 _atom_site_symmetry_multiplicity
 _atom_site_fract_x
 _atom_site_fract_y
 _atom_site_fract_z
 _atom_site_fract_occupancy
 Br  Br1  1  0.28331  0.44483  0.44483  1
 Br  Br2  1  0.71669  0.55517  0.55517  1
 Br  Br3  1  0.28331  0.44483  0.05517  1
 Br  Br4  1  0.71669  0.94483  0.94483  1
 Br  Br5  1  0.71669  0.55517  0.94483  1
 Br  Br6  1  0.28331  0.05517  0.44483  1
 Br  Br7  1  0.71669  0.94483  0.55517  1
 Br  Br8  1  0.28331  0.05517  0.05517  1
 S  S1  1  0.86880  0.03284  0.25000  1
 S  S2  1  0.38086  0.06089  0.75000  1
 S  S3  1  0.38086  0.75000  0.43911  1
 S  S4  1  0.61914  0.25000  0.93911  1
 S  S5  1  0.86880  0.25000  0.03284  1
 S  S6  1  0.13120  0.75000  0.96716  1
 S  S7  1  0.51618  0.75000  0.75000  1
 S  S8  1  0.13120  0.75000  0.53284  1
 S  S9  1  0.38086  0.75000  0.06089  1
 S  S10  1  0.61914  0.25000  0.56089  1
 S  S11  1  0.13120  0.53284  0.75000  1
 S  S12  1  0.86880  0.25000  0.46716  1
 S  S13  1  0.61914  0.93911  0.25000  1
 S  S14  1  0.86880  0.46716  0.25000  1
 S  S15  1  0.38086  0.43911  0.75000  1
 S  S16  1  0.48382  0.25000  0.25000  1
 S  S17  1  0.61914  0.56089  0.25000  1
 S  S18  1  0.13120  0.96716  0.75000  1
 V  V1  1  0.63431  0.11257  0.11257  1
 V  V2  1  0.36569  0.88743  0.61257  1
 V  V3  1  0.36569  0.61257  0.88743  1
 V  V4  1  0.63431  0.38743  0.11257  1
 V  V5  1  0.63431  0.11257  0.38743  1
 V  V6  1  0.36569  0.61257  0.61257  1
 V  V7  1  0.63431  0.38743  0.38743  1
 V  V8  1  0.36569  0.88743  0.88743  1
