CIF file written using JARVIS-Tools package.
data_Ba6Ru2PtCl2O12
_symmetry_space_group_name_H-M  'P-3m1'
_cell_length_a       5.85238
_cell_length_b       5.85238
_cell_length_c       15.2416
_cell_angle_alpha    90
_cell_angle_beta     90
_cell_angle_gamma    120

_symmetry_Int_Tables_number  164
_chemical_formula_structural  Ba6Ru2PtCl2O12
_chemical_formula_sum  Ba6Ru2PtCl2O2
_cell_volume  452.09126626460227
_cell_formula_units_Z  1
loop_
  _symmetry_equiv_pos_site_id
 _symmetry_equiv_pos_as_xyz
 1  'x, y, z'
loop_
 _atom_site_type_symbol
 _atom_site_label
 _atom_site_symmetry_multiplicity
 _atom_site_fract_x
 _atom_site_fract_y
 _atom_site_fract_z
 _atom_site_fract_occupancy
 Ba  Ba1  1  0.66667  0.33333  0.78477  1
 Ba  Ba2  1  0.33333  0.66667  0.91915  1
 Ba  Ba3  1  0.66667  0.33333  0.36645  1
 Ba  Ba4  1  0.66667  0.33333  0.08085  1
 Ba  Ba5  1  0.33333  0.66667  0.63355  1
 Ba  Ba6  1  0.33333  0.66667  0.21523  1
 Cl  Cl1  1  0.66667  0.33333  0.57735  1
 Cl  Cl2  1  0.33333  0.66667  0.42265  1
 O  O1  1  0.84758  0.69516  0.91309  1
 O  O2  1  0.69516  0.84758  0.08691  1
 O  O3  1  0.16123  0.32246  0.75687  1
 O  O4  1  0.67754  0.83877  0.75687  1
 O  O5  1  0.30484  0.15242  0.91309  1
 O  O6  1  0.32246  0.16123  0.24313  1
 O  O7  1  0.83877  0.67754  0.24313  1
 O  O8  1  0.84758  0.15242  0.91309  1
 O  O9  1  0.15242  0.84758  0.08691  1
 O  O10  1  0.83877  0.16123  0.24313  1
 O  O11  1  0.16123  0.83877  0.75687  1
 O  O12  1  0.15242  0.30484  0.08691  1
 Pt  Pt1  1  0.00000  0.00000  0.00000  1
 Ru  Ru1  1  0.00000  0.00000  0.81833  1
 Ru  Ru2  1  0.00000  0.00000  0.18167  1
