CIF file written using JARVIS-Tools package.
data_CaAl2O4
_symmetry_space_group_name_H-M  'Pnma'
_cell_length_a       2.89292
_cell_length_b       8.96648
_cell_length_c       10.3863
_cell_angle_alpha    90
_cell_angle_beta     90
_cell_angle_gamma    90

_symmetry_Int_Tables_number  62
_chemical_formula_structural  CaAl2O4
_chemical_formula_sum  Ca4Al8O6
_cell_volume  269.41393196572375
_cell_formula_units_Z  4
loop_
  _symmetry_equiv_pos_site_id
 _symmetry_equiv_pos_as_xyz
 1  'x, y, z'
loop_
 _atom_site_type_symbol
 _atom_site_label
 _atom_site_symmetry_multiplicity
 _atom_site_fract_x
 _atom_site_fract_y
 _atom_site_fract_z
 _atom_site_fract_occupancy
 Al  Al1  1  0.75000  0.91829  0.39689  1
 Al  Al2  1  0.75000  0.41829  0.10311  1
 Al  Al3  1  0.25000  0.08171  0.60311  1
 Al  Al4  1  0.25000  0.58171  0.89689  1
 Al  Al5  1  0.75000  0.43800  0.61125  1
 Al  Al6  1  0.25000  0.56200  0.38875  1
 Al  Al7  1  0.25000  0.06200  0.11125  1
 Al  Al8  1  0.75000  0.93800  0.88875  1
 Ca  Ca1  1  0.25000  0.74220  0.15543  1
 Ca  Ca2  1  0.25000  0.24220  0.34457  1
 Ca  Ca3  1  0.75000  0.25780  0.84457  1
 Ca  Ca4  1  0.75000  0.75780  0.65543  1
 O  O1  1  0.75000  0.02604  0.71568  1
 O  O2  1  0.25000  0.07759  0.92817  1
 O  O3  1  0.75000  0.70357  0.34597  1
 O  O4  1  0.25000  0.57759  0.57183  1
 O  O5  1  0.75000  0.42241  0.42817  1
 O  O6  1  0.25000  0.97396  0.28432  1
 O  O7  1  0.75000  0.92241  0.07183  1
 O  O8  1  0.25000  0.79643  0.84597  1
 O  O9  1  0.75000  0.61443  0.01965  1
 O  O10  1  0.25000  0.88557  0.51965  1
 O  O11  1  0.75000  0.11443  0.48035  1
 O  O12  1  0.75000  0.20357  0.15403  1
 O  O13  1  0.25000  0.47396  0.21568  1
 O  O14  1  0.25000  0.38557  0.98035  1
 O  O15  1  0.75000  0.52604  0.78432  1
 O  O16  1  0.25000  0.29643  0.65403  1
