CIF file written using JARVIS-Tools package.
data_Na3NpH2O6
_symmetry_space_group_name_H-M  'Fdd2'
_cell_length_a       6.00357
_cell_length_b       6.00357
_cell_length_c       10.478
_cell_angle_alpha    97.9836
_cell_angle_beta     97.9836
_cell_angle_gamma    121.01

_symmetry_Int_Tables_number  43
_chemical_formula_structural  Na3NpH2O6
_chemical_formula_sum  Na6Np2H4O2
_cell_volume  310.53426388847254
_cell_formula_units_Z  2
loop_
  _symmetry_equiv_pos_site_id
 _symmetry_equiv_pos_as_xyz
 1  'x, y, z'
loop_
 _atom_site_type_symbol
 _atom_site_label
 _atom_site_symmetry_multiplicity
 _atom_site_fract_x
 _atom_site_fract_y
 _atom_site_fract_z
 _atom_site_fract_occupancy
 H  H1  1  0.51781  0.42680  0.28892  1
 H  H2  1  0.47890  0.88788  0.21109  1
 H  H3  1  0.11212  0.52111  0.78891  1
 H  H4  1  0.57321  0.48219  0.71108  1
 Na  Na1  1  0.68169  0.09504  0.82395  1
 Na  Na2  1  0.13141  0.86859  0.00000  1
 Na  Na3  1  0.38141  0.61859  0.50000  1
 Na  Na4  1  0.97891  0.89227  0.32395  1
 Na  Na5  1  0.90496  0.31832  0.17605  1
 Na  Na6  1  0.10773  0.02109  0.67604  1
 Np  Np1  1  0.47076  0.52924  0.00000  1
 Np  Np2  1  0.72076  0.27924  0.50000  1
 O  O1  1  0.47986  0.35389  0.62257  1
 O  O2  1  0.03801  0.59987  0.61620  1
 O  O3  1  0.74738  0.04773  0.61266  1
 O  O4  1  0.95228  0.25263  0.38734  1
 O  O5  1  0.40013  0.96199  0.38381  1
 O  O6  1  0.26633  0.32819  0.11619  1
 O  O7  1  0.51868  0.89271  0.12257  1
 O  O8  1  0.81493  0.61529  0.11266  1
 O  O9  1  0.67181  0.73367  0.88381  1
 O  O10  1  0.10729  0.48132  0.87743  1
 O  O11  1  0.64611  0.52014  0.37743  1
 O  O12  1  0.38471  0.18507  0.88734  1
