CIF file written using JARVIS-Tools package.
data_KCuCO3F
_symmetry_space_group_name_H-M  'Pmc2_1'
_cell_length_a       4.01406
_cell_length_b       5.09523
_cell_length_c       8.99844
_cell_angle_alpha    90
_cell_angle_beta     90
_cell_angle_gamma    90

_symmetry_Int_Tables_number  26
_chemical_formula_structural  KCuCO3F
_chemical_formula_sum  K2Cu2C2O6F2
_cell_volume  184.04085547372898
_cell_formula_units_Z  2
loop_
  _symmetry_equiv_pos_site_id
 _symmetry_equiv_pos_as_xyz
 1  'x, y, z'
loop_
 _atom_site_type_symbol
 _atom_site_label
 _atom_site_symmetry_multiplicity
 _atom_site_fract_x
 _atom_site_fract_y
 _atom_site_fract_z
 _atom_site_fract_occupancy
 C  C1  1  0.00000  0.78473  0.41366  1
 C  C2  1  0.00000  0.21527  0.91366  1
 Cu  Cu1  1  0.00000  0.78961  0.73274  1
 Cu  Cu2  1  0.00000  0.21039  0.23274  1
 F  F1  1  0.50000  0.80663  0.72860  1
 F  F2  1  0.50000  0.19337  0.22860  1
 K  K1  1  0.50000  0.70886  0.07734  1
 K  K2  1  0.50000  0.29114  0.57734  1
 O  O1  1  0.00000  0.32841  0.78771  1
 O  O2  1  0.00000  0.04063  0.42507  1
 O  O3  1  0.00000  0.64589  0.53488  1
 O  O4  1  0.00000  0.67159  0.28771  1
 O  O5  1  0.00000  0.35411  0.03488  1
 O  O6  1  0.00000  0.95937  0.92507  1
