CIF file written using JARVIS-Tools package.
data_Yb2SiO5
_symmetry_space_group_name_H-M  'C2/c'
_cell_length_a       8.34856
_cell_length_b       11.0215
_cell_length_c       8.34856
_cell_angle_alpha    124.279
_cell_angle_beta     44.791
_cell_angle_gamma    124.279

_symmetry_Int_Tables_number  15
_chemical_formula_structural  Yb2SiO5
_chemical_formula_sum  Yb8Si4O20
_cell_volume  429.1908153130872
_cell_formula_units_Z  4
loop_
  _symmetry_equiv_pos_site_id
 _symmetry_equiv_pos_as_xyz
 1  'x, y, z'
loop_
 _atom_site_type_symbol
 _atom_site_label
 _atom_site_symmetry_multiplicity
 _atom_site_fract_x
 _atom_site_fract_y
 _atom_site_fract_z
 _atom_site_fract_occupancy
 O  O1  1  0.14508  0.66134  0.02728  1
 O  O2  1  0.53289  0.01964  0.41609  1
 O  O3  1  0.58391  0.48036  0.46711  1
 O  O4  1  0.46711  0.98036  0.58391  1
 O  O5  1  0.59529  0.70601  0.19299  1
 O  O6  1  0.12562  0.45264  0.23927  1
 O  O7  1  0.76073  0.04736  0.87438  1
 O  O8  1  0.87438  0.54736  0.76073  1
 O  O9  1  0.23927  0.95264  0.12562  1
 O  O10  1  0.41609  0.51964  0.53289  1
 O  O11  1  0.83658  0.15388  0.58918  1
 O  O12  1  0.16342  0.84612  0.41082  1
 O  O13  1  0.02728  0.16134  0.14508  1
 O  O14  1  0.85492  0.33866  0.97272  1
 O  O15  1  0.97272  0.83866  0.85492  1
 O  O16  1  0.80701  0.79399  0.40471  1
 O  O17  1  0.40471  0.29399  0.80701  1
 O  O18  1  0.19299  0.20601  0.59529  1
 O  O19  1  0.58918  0.65388  0.83658  1
 O  O20  1  0.41082  0.34612  0.16342  1
 Si  Si1  1  0.91045  0.18329  0.74685  1
 Si  Si2  1  0.25315  0.31671  0.08955  1
 Si  Si3  1  0.74685  0.68329  0.91045  1
 Si  Si4  1  0.08955  0.81671  0.25315  1
 Yb  Yb1  1  0.54193  0.81089  0.78841  1
 Yb  Yb2  1  0.21159  0.68911  0.45807  1
 Yb  Yb3  1  0.45807  0.18911  0.21159  1
 Yb  Yb4  1  0.78841  0.31089  0.54193  1
 Yb  Yb5  1  0.12973  0.04790  0.74999  1
 Yb  Yb6  1  0.25001  0.45210  0.87027  1
 Yb  Yb7  1  0.87027  0.95210  0.25000  1
 Yb  Yb8  1  0.74999  0.54790  0.12973  1
