CIF file written using JARVIS-Tools package.
data_Mn5Fe3O16
_symmetry_space_group_name_H-M  'Cm'
_cell_length_a       5.62394
_cell_length_b       5.62932
_cell_length_c       8.69248
_cell_angle_alpha    89.5696
_cell_angle_beta     89.9999
_cell_angle_gamma    119.969

_symmetry_Int_Tables_number  8
_chemical_formula_structural  Mn5Fe3O16
_chemical_formula_sum  Mn5Fe3O6
_cell_volume  238.39073849340838
_cell_formula_units_Z  1
loop_
  _symmetry_equiv_pos_site_id
 _symmetry_equiv_pos_as_xyz
 1  'x, y, z'
loop_
 _atom_site_type_symbol
 _atom_site_label
 _atom_site_symmetry_multiplicity
 _atom_site_fract_x
 _atom_site_fract_y
 _atom_site_fract_z
 _atom_site_fract_occupancy
 Fe  Fe1  1  0.83549  0.16701  0.79101  1
 Fe  Fe2  1  0.33153  0.16701  0.79101  1
 Fe  Fe3  1  0.16759  0.33515  0.29283  1
 Mn  Mn1  1  0.66631  0.33261  0.51224  1
 Mn  Mn2  1  0.83035  0.66069  0.78784  1
 Mn  Mn3  1  0.33271  0.66541  0.01310  1
 Mn  Mn4  1  0.66595  0.83345  0.28891  1
 Mn  Mn5  1  0.16751  0.83345  0.28891  1
 O  O1  1  0.83033  0.16988  0.39895  1
 O  O2  1  0.52160  0.04319  0.66312  1
 O  O3  1  0.66348  0.32696  0.90064  1
 O  O4  1  0.48029  0.96057  0.15764  1
 O  O5  1  0.00244  0.00486  0.18145  1
 O  O6  1  0.33957  0.16988  0.39895  1
 O  O7  1  -0.00043  -0.00087  0.68036  1
 O  O8  1  0.47873  0.52081  0.15970  1
 O  O9  1  0.16952  0.33902  0.89852  1
 O  O10  1  0.83118  0.66234  0.40105  1
 O  O11  1  0.96056  0.47544  0.65974  1
 O  O12  1  0.04210  0.52081  0.15971  1
 O  O13  1  0.33265  0.66527  0.40166  1
 O  O14  1  0.66672  0.83581  0.89860  1
 O  O15  1  0.51490  0.47544  0.65974  1
 O  O16  1  0.16910  0.83581  0.89860  1
