CIF file written using JARVIS-Tools package.
data_B
_symmetry_space_group_name_H-M  'P4_2/nnm'
_cell_length_a       5.0685
_cell_length_b       8.63512
_cell_length_c       8.63512
_cell_angle_alpha    90
_cell_angle_beta     90
_cell_angle_gamma    90

_symmetry_Int_Tables_number  134
_chemical_formula_structural  B
_chemical_formula_sum  B50
_cell_volume  377.9338070600965
_cell_formula_units_Z  50
loop_
  _symmetry_equiv_pos_site_id
 _symmetry_equiv_pos_as_xyz
 1  'x, y, z'
loop_
 _atom_site_type_symbol
 _atom_site_label
 _atom_site_symmetry_multiplicity
 _atom_site_fract_x
 _atom_site_fract_y
 _atom_site_fract_z
 _atom_site_fract_occupancy
 B  B1  1  0.36723  0.88009  0.38009  1
 B  B2  1  0.34257  0.33168  0.97733  1
 B  B3  1  0.34257  0.02267  0.66832  1
 B  B4  1  0.84257  0.97733  0.16832  1
 B  B5  1  0.83444  0.00414  0.50414  1
 B  B6  1  0.84257  0.83168  0.02267  1
 B  B7  1  0.65743  0.83168  0.47733  1
 B  B8  1  0.86723  0.11991  0.88009  1
 B  B9  1  0.75000  0.75000  0.25000  1
 B  B10  1  0.34584  0.83216  0.57835  1
 B  B11  1  0.15416  0.83216  0.92165  1
 B  B12  1  0.34584  0.42165  0.16784  1
 B  B13  1  0.36723  0.61991  0.11991  1
 B  B14  1  0.13277  0.88009  0.11991  1
 B  B15  1  0.15416  0.66784  0.57835  1
 B  B16  1  0.65416  0.16784  0.42165  1
 B  B17  1  0.66556  0.00414  0.99586  1
 B  B18  1  0.65416  0.57835  0.83216  1
 B  B19  1  0.34584  0.07835  0.33216  1
 B  B20  1  0.16556  0.99586  0.49586  1
 B  B21  1  0.15416  0.42165  0.33216  1
 B  B22  1  0.33444  0.50414  0.49586  1
 B  B23  1  0.15416  0.07835  0.16784  1
 B  B24  1  0.66556  0.49586  0.50414  1
 B  B25  1  0.33444  0.99586  0.00414  1
 B  B26  1  0.84257  0.66832  0.47733  1
 B  B27  1  0.83444  0.49586  0.99586  1
 B  B28  1  0.65743  0.52267  0.16832  1
 B  B29  1  0.13277  0.61991  0.38009  1
 B  B30  1  0.84584  0.33216  0.42165  1
 B  B31  1  0.15743  0.47733  0.66832  1
 B  B32  1  0.34257  0.47733  0.83168  1
 B  B33  1  0.15743  0.02267  0.83168  1
 B  B34  1  0.65743  0.66832  0.02267  1
 B  B35  1  0.84584  0.16784  0.07835  1
 B  B36  1  0.15743  0.16832  0.97733  1
 B  B37  1  0.34257  0.16832  0.52267  1
 B  B38  1  0.84584  0.57835  0.66784  1
 B  B39  1  0.63277  0.38009  0.88009  1
 B  B40  1  0.34584  0.66784  0.92165  1
 B  B41  1  0.15743  0.33168  0.52267  1
 B  B42  1  0.65743  0.97733  0.33168  1
 B  B43  1  0.65416  0.92165  0.66784  1
 B  B44  1  0.25000  0.25000  0.75000  1
 B  B45  1  0.84584  0.92165  0.83216  1
 B  B46  1  0.16556  0.50414  0.00414  1
 B  B47  1  0.63277  0.11991  0.61991  1
 B  B48  1  0.86723  0.38009  0.61991  1
 B  B49  1  0.65416  0.33216  0.07835  1
 B  B50  1  0.84257  0.52267  0.33168  1
