CIF file written using JARVIS-Tools package.
data_Te2MoW3S6
_symmetry_space_group_name_H-M  'P3m1'
_cell_length_a       3.27941
_cell_length_b       3.27953
_cell_length_c       33.257
_cell_angle_alpha    89.9819
_cell_angle_beta     90.0226
_cell_angle_gamma    119.999

_symmetry_Int_Tables_number  156
_chemical_formula_structural  Te2MoW3S6
_chemical_formula_sum  Te2MoW3S6
_cell_volume  309.7609826184217
_cell_formula_units_Z  1
loop_
  _symmetry_equiv_pos_site_id
 _symmetry_equiv_pos_as_xyz
 1  'x, y, z'
loop_
 _atom_site_type_symbol
 _atom_site_label
 _atom_site_symmetry_multiplicity
 _atom_site_fract_x
 _atom_site_fract_y
 _atom_site_fract_z
 _atom_site_fract_occupancy
 Mo  Mo1  1  0.66682  0.33388  0.27753  1
 S  S1  1  0.33351  0.66685  0.32381  1
 S  S2  1  0.66645  0.33313  0.04587  1
 S  S3  1  0.66639  0.33299  0.41798  1
 S  S4  1  0.66684  0.33306  0.13878  1
 S  S5  1  0.66674  0.33287  0.51095  1
 S  S6  1  0.33330  0.66723  0.23127  1
 Te  Te1  1  0.33352  0.66667  0.72693  1
 Te  Te2  1  0.33316  0.66700  0.61019  1
 W  W1  1  0.33339  0.66662  0.09232  1
 W  W2  1  0.33321  0.66621  0.46447  1
 W  W3  1  0.66667  0.33350  0.66864  1
