CIF file written using JARVIS-Tools package.
data_ScFe4P2
_symmetry_space_group_name_H-M  'P4_2/mnm'
_cell_length_a       6.8872
_cell_length_b       6.8872
_cell_length_c       3.56595
_cell_angle_alpha    90
_cell_angle_beta     90
_cell_angle_gamma    90

_symmetry_Int_Tables_number  136
_chemical_formula_structural  ScFe4P2
_chemical_formula_sum  Sc2Fe8P4
_cell_volume  169.14572724303085
_cell_formula_units_Z  2
loop_
  _symmetry_equiv_pos_site_id
 _symmetry_equiv_pos_as_xyz
 1  'x, y, z'
loop_
 _atom_site_type_symbol
 _atom_site_label
 _atom_site_symmetry_multiplicity
 _atom_site_fract_x
 _atom_site_fract_y
 _atom_site_fract_z
 _atom_site_fract_occupancy
 Fe  Fe1  1  0.58008  0.15811  0.50000  1
 Fe  Fe2  1  0.84189  0.41992  0.50000  1
 Fe  Fe3  1  0.08008  0.34189  0.00000  1
 Fe  Fe4  1  0.91992  0.65811  0.00000  1
 Fe  Fe5  1  0.41992  0.84189  0.50000  1
 Fe  Fe6  1  0.15811  0.58008  0.50000  1
 Fe  Fe7  1  0.34189  0.08008  0.00000  1
 Fe  Fe8  1  0.65811  0.91992  0.00000  1
 P  P1  1  0.72023  0.72023  0.50000  1
 P  P2  1  0.22023  0.77977  0.00000  1
 P  P3  1  0.27977  0.27977  0.50000  1
 P  P4  1  0.77977  0.22023  0.00000  1
 Sc  Sc1  1  0.00000  0.00000  0.50000  1
 Sc  Sc2  1  0.50000  0.50000  0.00000  1
