CIF file written using JARVIS-Tools package.
data_Sm3RuO7
_symmetry_space_group_name_H-M  'Cmcm'
_cell_length_a       6.53017
_cell_length_b       6.53017
_cell_length_c       7.48868
_cell_angle_alpha    90
_cell_angle_beta     90
_cell_angle_gamma    111.58

_symmetry_Int_Tables_number  63
_chemical_formula_structural  Sm3RuO7
_chemical_formula_sum  Sm6Ru2O4
_cell_volume  296.9561939398933
_cell_formula_units_Z  2
loop_
  _symmetry_equiv_pos_site_id
 _symmetry_equiv_pos_as_xyz
 1  'x, y, z'
loop_
 _atom_site_type_symbol
 _atom_site_label
 _atom_site_symmetry_multiplicity
 _atom_site_fract_x
 _atom_site_fract_y
 _atom_site_fract_z
 _atom_site_fract_occupancy
 O  O1  1  0.81396  0.56057  0.04140  1
 O  O2  1  0.41390  0.41390  0.25000  1
 O  O3  1  0.10379  0.84064  0.75000  1
 O  O4  1  0.89621  0.15936  0.25000  1
 O  O5  1  0.84064  0.10379  0.75000  1
 O  O6  1  0.15936  0.89621  0.25000  1
 O  O7  1  0.18604  0.43943  0.95860  1
 O  O8  1  0.81396  0.56057  0.45860  1
 O  O9  1  0.43943  0.18604  0.95860  1
 O  O10  1  0.58610  0.58610  0.75000  1
 O  O11  1  0.18604  0.43943  0.54140  1
 O  O12  1  0.56057  0.81396  0.04140  1
 O  O13  1  0.43943  0.18604  0.54140  1
 O  O14  1  0.56057  0.81396  0.45860  1
 Ru  Ru1  1  0.50000  0.50000  0.50000  1
 Ru  Ru2  1  0.50000  0.50000  0.00000  1
 Sm  Sm1  1  0.00000  0.00000  0.50000  1
 Sm  Sm2  1  0.91460  0.47149  0.75000  1
 Sm  Sm3  1  0.08540  0.52851  0.25000  1
 Sm  Sm4  1  0.47149  0.91460  0.75000  1
 Sm  Sm5  1  0.52851  0.08540  0.25000  1
 Sm  Sm6  1  0.00000  0.00000  0.00000  1
