CIF file written using JARVIS-Tools package.
data_Fe3W3N
_symmetry_space_group_name_H-M  'Fd-3m'
_cell_length_a       7.8016
_cell_length_b       7.8016
_cell_length_c       7.8016
_cell_angle_alpha    60
_cell_angle_beta     60
_cell_angle_gamma    60

_symmetry_Int_Tables_number  227
_chemical_formula_structural  Fe3W3N
_chemical_formula_sum  Fe2W2N4
_cell_volume  335.7653796423853
_cell_formula_units_Z  4
loop_
  _symmetry_equiv_pos_site_id
 _symmetry_equiv_pos_as_xyz
 1  'x, y, z'
loop_
 _atom_site_type_symbol
 _atom_site_label
 _atom_site_symmetry_multiplicity
 _atom_site_fract_x
 _atom_site_fract_y
 _atom_site_fract_z
 _atom_site_fract_occupancy
 Fe  Fe1  1  0.70291  0.70291  0.39127  1
 Fe  Fe2  1  0.70291  0.39127  0.70291  1
 Fe  Fe3  1  0.39127  0.70291  0.70291  1
 Fe  Fe4  1  0.29709  0.29709  0.29709  1
 Fe  Fe5  1  0.60873  0.29709  0.29709  1
 Fe  Fe6  1  0.29709  0.60873  0.29709  1
 Fe  Fe7  1  0.70291  0.70291  0.70291  1
 Fe  Fe8  1  0.29709  0.29709  0.60873  1
 Fe  Fe9  1  0.50000  0.50000  -0.00000  1
 Fe  Fe10  1  0.00000  0.50000  0.50000  1
 Fe  Fe11  1  0.50000  0.00000  0.50000  1
 Fe  Fe12  1  0.50000  0.50000  0.50000  1
 N  N1  1  0.00000  0.00000  0.50000  1
 N  N2  1  0.00000  0.00000  0.00000  1
 N  N3  1  0.00000  0.50000  -0.00000  1
 N  N4  1  0.50000  0.00000  -0.00000  1
 W  W1  1  0.92091  0.32909  0.32909  1
 W  W2  1  0.32909  0.32909  0.92091  1
 W  W3  1  0.07909  0.67091  0.07909  1
 W  W4  1  0.67091  0.67091  0.07909  1
 W  W5  1  0.67091  0.07909  0.07909  1
 W  W6  1  0.32909  0.92091  0.92091  1
 W  W7  1  0.07909  0.67091  0.67091  1
 W  W8  1  0.92091  0.92091  0.32909  1
 W  W9  1  0.67091  0.07909  0.67091  1
 W  W10  1  0.07909  0.07909  0.67091  1
 W  W11  1  0.32909  0.92091  0.32909  1
 W  W12  1  0.92091  0.32909  0.92091  1
