CIF file written using JARVIS-Tools package.
data_La3Te4
_symmetry_space_group_name_H-M  'I-43d'
_cell_length_a       8.38233
_cell_length_b       8.38234
_cell_length_c       8.38234
_cell_angle_alpha    109.471
_cell_angle_beta     109.471
_cell_angle_gamma    109.471

_symmetry_Int_Tables_number  220
_chemical_formula_structural  La3Te4
_chemical_formula_sum  La6Te8
_cell_volume  453.3916502039575
_cell_formula_units_Z  2
loop_
  _symmetry_equiv_pos_site_id
 _symmetry_equiv_pos_as_xyz
 1  'x, y, z'
loop_
 _atom_site_type_symbol
 _atom_site_label
 _atom_site_symmetry_multiplicity
 _atom_site_fract_x
 _atom_site_fract_y
 _atom_site_fract_z
 _atom_site_fract_occupancy
 La  La1  1  0.75000  0.87500  0.12500  1
 La  La2  1  0.62500  0.37500  0.25000  1
 La  La3  1  0.87500  0.12500  0.75000  1
 La  La4  1  0.12500  0.75000  0.87500  1
 La  La5  1  0.37500  0.25000  0.62500  1
 La  La6  1  0.25000  0.62500  0.37500  1
 Te  Te1  1  0.65150  0.65150  0.65150  1
 Te  Te2  1  0.34850  0.50000  0.00000  1
 Te  Te3  1  0.50000  0.00000  0.34850  1
 Te  Te4  1  0.00000  0.34850  0.50000  1
 Te  Te5  1  0.50000  0.00000  0.84850  1
 Te  Te6  1  -0.00000  0.84850  0.50000  1
 Te  Te7  1  0.15150  0.15150  0.15150  1
 Te  Te8  1  0.84850  0.50000  0.00000  1
