CIF file written using JARVIS-Tools package.
data_Rb2USi4O12
_symmetry_space_group_name_H-M  'P-1'
_cell_length_a       6.87931
_cell_length_b       8.20727
_cell_length_c       11.2614
_cell_angle_alpha    106.419
_cell_angle_beta     89.0733
_cell_angle_gamma    101.897

_symmetry_Int_Tables_number  2
_chemical_formula_structural  Rb2USi4O12
_chemical_formula_sum  Rb4U2Si8O24
_cell_volume  596.1940073387499
_cell_formula_units_Z  2
loop_
  _symmetry_equiv_pos_site_id
 _symmetry_equiv_pos_as_xyz
 1  'x, y, z'
loop_
 _atom_site_type_symbol
 _atom_site_label
 _atom_site_symmetry_multiplicity
 _atom_site_fract_x
 _atom_site_fract_y
 _atom_site_fract_z
 _atom_site_fract_occupancy
 O  O1  1  0.85367  0.13424  0.13525  1
 O  O2  1  0.83018  0.16885  0.76024  1
 O  O3  1  0.44061  0.16729  0.74954  1
 O  O4  1  0.14528  0.24489  0.63549  1
 O  O5  1  0.78151  0.06712  0.43984  1
 O  O6  1  0.57718  0.92782  0.82688  1
 O  O7  1  0.83172  0.37157  0.60931  1
 O  O8  1  0.85472  0.75511  0.36451  1
 O  O9  1  0.46556  0.20217  0.51633  1
 O  O10  1  0.37073  0.73595  0.03155  1
 O  O11  1  0.49543  0.43147  0.19990  1
 O  O12  1  0.16982  0.83115  0.23976  1
 O  O13  1  0.94880  0.50502  0.17619  1
 O  O14  1  0.42282  0.07218  0.17312  1
 O  O15  1  0.55939  0.83271  0.25046  1
 O  O16  1  0.05120  0.49498  0.82381  1
 O  O17  1  0.72818  0.34577  0.37596  1
 O  O18  1  0.53444  0.79783  0.48367  1
 O  O19  1  0.27182  0.65423  0.62404  1
 O  O20  1  0.16828  0.62843  0.39069  1
 O  O21  1  0.14633  0.86576  0.86475  1
 O  O22  1  0.50457  0.56853  0.80010  1
 O  O23  1  0.62927  0.26405  0.96845  1
 O  O24  1  0.21849  0.93288  0.56016  1
 Rb  Rb1  1  0.83086  0.74366  0.65524  1
 Rb  Rb2  1  0.80594  0.70193  0.00884  1
 Rb  Rb3  1  0.16914  0.25634  0.34476  1
 Rb  Rb4  1  0.19406  0.29807  0.99116  1
 Si  Si1  1  0.38128  0.86877  0.16935  1
 Si  Si2  1  0.70033  0.25032  0.48271  1
 Si  Si3  1  0.61872  0.13123  0.83065  1
 Si  Si4  1  0.32196  0.13884  0.61968  1
 Si  Si5  1  0.29967  0.74968  0.51729  1
 Si  Si6  1  0.03506  0.67489  0.28898  1
 Si  Si7  1  0.67804  0.86116  0.38032  1
 Si  Si8  1  0.96494  0.32511  0.71102  1
 U  U1  1  0.67761  0.28676  0.16880  1
 U  U2  1  0.32239  0.71324  0.83120  1
