CIF file written using JARVIS-Tools package.
data_BaAlBO3F2
_symmetry_space_group_name_H-M  'P-62c'
_cell_length_a       4.92042
_cell_length_b       4.92042
_cell_length_c       9.41378
_cell_angle_alpha    90
_cell_angle_beta     90
_cell_angle_gamma    120

_symmetry_Int_Tables_number  190
_chemical_formula_structural  BaAlBO3F2
_chemical_formula_sum  Ba2Al2B2O6F4
_cell_volume  197.37844142546874
_cell_formula_units_Z  2
loop_
  _symmetry_equiv_pos_site_id
 _symmetry_equiv_pos_as_xyz
 1  'x, y, z'
loop_
 _atom_site_type_symbol
 _atom_site_label
 _atom_site_symmetry_multiplicity
 _atom_site_fract_x
 _atom_site_fract_y
 _atom_site_fract_z
 _atom_site_fract_occupancy
 Al  Al1  1  0.66667  0.33333  0.00000  1
 Al  Al2  1  0.33333  0.66667  0.50000  1
 B  B1  1  0.33333  0.66667  0.00000  1
 B  B2  1  0.66667  0.33333  0.50000  1
 Ba  Ba1  1  0.00000  0.00000  0.75000  1
 Ba  Ba2  1  0.00000  0.00000  0.25000  1
 F  F1  1  0.66667  0.33333  0.80215  1
 F  F2  1  0.33333  0.66667  0.69785  1
 F  F3  1  0.33333  0.66667  0.30215  1
 F  F4  1  0.66667  0.33333  0.19785  1
 O  O1  1  0.94406  0.32713  0.50000  1
 O  O2  1  0.05594  0.38307  0.00000  1
 O  O3  1  0.38307  0.05594  0.50000  1
 O  O4  1  0.32713  0.94406  0.00000  1
 O  O5  1  0.61693  0.67287  0.00000  1
 O  O6  1  0.67287  0.61693  0.50000  1
