CIF file written using JARVIS-Tools package.
data_LuGe2
_symmetry_space_group_name_H-M  'Cmcm'
_cell_length_a       8.09475
_cell_length_b       8.09475
_cell_length_c       3.87803
_cell_angle_alpha    90
_cell_angle_beta     90
_cell_angle_gamma    28.6389

_symmetry_Int_Tables_number  63
_chemical_formula_structural  LuGe2
_chemical_formula_sum  Lu2Ge4
_cell_volume  121.79087722840013
_cell_formula_units_Z  2
loop_
  _symmetry_equiv_pos_site_id
 _symmetry_equiv_pos_as_xyz
 1  'x, y, z'
loop_
 _atom_site_type_symbol
 _atom_site_label
 _atom_site_symmetry_multiplicity
 _atom_site_fract_x
 _atom_site_fract_y
 _atom_site_fract_z
 _atom_site_fract_occupancy
 Ge  Ge1  1  0.74697  0.74697  0.25000  1
 Ge  Ge2  1  0.25303  0.25303  0.75000  1
 Ge  Ge3  1  0.44524  0.44524  0.25000  1
 Ge  Ge4  1  0.55476  0.55476  0.75000  1
 Lu  Lu1  1  0.10351  0.10351  0.25000  1
 Lu  Lu2  1  0.89649  0.89649  0.75000  1
