CIF file written using JARVIS-Tools package.
data_Mn3B2O6
_symmetry_space_group_name_H-M  'Pnnm'
_cell_length_a       4.66983
_cell_length_b       5.68484
_cell_length_c       8.73519
_cell_angle_alpha    90
_cell_angle_beta     90
_cell_angle_gamma    90

_symmetry_Int_Tables_number  58
_chemical_formula_structural  Mn3B2O6
_chemical_formula_sum  Mn6B4O2
_cell_volume  231.89527604625113
_cell_formula_units_Z  2
loop_
  _symmetry_equiv_pos_site_id
 _symmetry_equiv_pos_as_xyz
 1  'x, y, z'
loop_
 _atom_site_type_symbol
 _atom_site_label
 _atom_site_symmetry_multiplicity
 _atom_site_fract_x
 _atom_site_fract_y
 _atom_site_fract_z
 _atom_site_fract_occupancy
 B  B1  1  0.03760  0.24192  0.50000  1
 B  B2  1  0.46240  0.74192  0.00000  1
 B  B3  1  0.96240  0.75808  0.50000  1
 B  B4  1  0.53760  0.25808  0.00000  1
 Mn  Mn1  1  0.00000  0.50000  0.81070  1
 Mn  Mn2  1  0.50000  0.00000  0.68930  1
 Mn  Mn3  1  0.00000  0.50000  0.18930  1
 Mn  Mn4  1  0.50000  0.00000  0.31070  1
 Mn  Mn5  1  0.50000  0.50000  0.50000  1
 Mn  Mn6  1  0.00000  0.00000  0.00000  1
 O  O1  1  0.68828  0.21327  0.13535  1
 O  O2  1  0.81172  0.71327  0.36465  1
 O  O3  1  0.31172  0.78673  0.86465  1
 O  O4  1  0.68828  0.21327  0.86465  1
 O  O5  1  0.31172  0.78673  0.13535  1
 O  O6  1  0.74904  0.68201  0.00000  1
 O  O7  1  0.25096  0.31799  0.00000  1
 O  O8  1  0.75096  0.18201  0.50000  1
 O  O9  1  0.24904  0.81799  0.50000  1
 O  O10  1  0.81172  0.71327  0.63535  1
 O  O11  1  0.18828  0.28673  0.63535  1
 O  O12  1  0.18828  0.28673  0.36465  1
