CIF file written using JARVIS-Tools package.
data_Sc7BCl12
_symmetry_space_group_name_H-M  'R-3'
_cell_length_a       8.0724
_cell_length_b       8.07241
_cell_length_c       8.07241
_cell_angle_alpha    107.415
_cell_angle_beta     107.415
_cell_angle_gamma    107.415

_symmetry_Int_Tables_number  148
_chemical_formula_structural  Sc7BCl12
_chemical_formula_sum  Sc7BCl2
_cell_volume  433.0201730127979
_cell_formula_units_Z  1
loop_
  _symmetry_equiv_pos_site_id
 _symmetry_equiv_pos_as_xyz
 1  'x, y, z'
loop_
 _atom_site_type_symbol
 _atom_site_label
 _atom_site_symmetry_multiplicity
 _atom_site_fract_x
 _atom_site_fract_y
 _atom_site_fract_z
 _atom_site_fract_occupancy
 B  B1  1  0.00000  0.00000  0.00000  1
 Cl  Cl1  1  0.61417  0.84445  0.53467  1
 Cl  Cl2  1  0.84445  0.53467  0.61417  1
 Cl  Cl3  1  0.53467  0.61417  0.84445  1
 Cl  Cl4  1  0.38583  0.15555  0.46533  1
 Cl  Cl5  1  0.15555  0.46533  0.38583  1
 Cl  Cl6  1  0.46533  0.38583  0.15555  1
 Cl  Cl7  1  0.07659  0.22759  0.68619  1
 Cl  Cl8  1  0.22759  0.68619  0.07659  1
 Cl  Cl9  1  0.68619  0.07659  0.22759  1
 Cl  Cl10  1  0.92341  0.77241  0.31381  1
 Cl  Cl11  1  0.77241  0.31381  0.92341  1
 Cl  Cl12  1  0.31381  0.92341  0.77241  1
 Sc  Sc1  1  0.96928  0.89539  0.68514  1
 Sc  Sc2  1  0.89539  0.68514  0.96928  1
 Sc  Sc3  1  0.68514  0.96928  0.89539  1
 Sc  Sc4  1  0.03072  0.10461  0.31486  1
 Sc  Sc5  1  0.10461  0.31486  0.03072  1
 Sc  Sc6  1  0.31486  0.03072  0.10461  1
 Sc  Sc7  1  0.50000  0.50000  0.50000  1
