CIF file written using JARVIS-Tools package.
data_NiSe
_symmetry_space_group_name_H-M  'R3m'
_cell_length_a       5.89706
_cell_length_b       5.89706
_cell_length_c       5.89706
_cell_angle_alpha    116.496
_cell_angle_beta     116.496
_cell_angle_gamma    116.496

_symmetry_Int_Tables_number  160
_chemical_formula_structural  NiSe
_chemical_formula_sum  Ni3Se3
_cell_volume  97.33904960803015
_cell_formula_units_Z  3
loop_
  _symmetry_equiv_pos_site_id
 _symmetry_equiv_pos_as_xyz
 1  'x, y, z'
loop_
 _atom_site_type_symbol
 _atom_site_label
 _atom_site_symmetry_multiplicity
 _atom_site_fract_x
 _atom_site_fract_y
 _atom_site_fract_z
 _atom_site_fract_occupancy
 Ni  Ni1  1  0.00695  0.26339  0.00695  1
 Ni  Ni2  1  0.00695  0.00695  0.26339  1
 Ni  Ni3  1  0.26339  0.00695  0.00695  1
 Se  Se1  1  0.72479  0.38514  0.72479  1
 Se  Se2  1  0.72479  0.72479  0.38514  1
 Se  Se3  1  0.38514  0.72479  0.72479  1
