CIF file written using JARVIS-Tools package.
data_BaSO4
_symmetry_space_group_name_H-M  'Pnma'
_cell_length_a       5.48096
_cell_length_b       7.19203
_cell_length_c       8.92782
_cell_angle_alpha    90
_cell_angle_beta     90
_cell_angle_gamma    90

_symmetry_Int_Tables_number  62
_chemical_formula_structural  BaSO4
_chemical_formula_sum  Ba4S4O6
_cell_volume  351.9272828162366
_cell_formula_units_Z  4
loop_
  _symmetry_equiv_pos_site_id
 _symmetry_equiv_pos_as_xyz
 1  'x, y, z'
loop_
 _atom_site_type_symbol
 _atom_site_label
 _atom_site_symmetry_multiplicity
 _atom_site_fract_x
 _atom_site_fract_y
 _atom_site_fract_z
 _atom_site_fract_occupancy
 Ba  Ba1  1  0.25000  0.84201  0.68434  1
 Ba  Ba2  1  0.75000  0.15799  0.31566  1
 Ba  Ba3  1  0.75000  0.34201  0.81566  1
 Ba  Ba4  1  0.25000  0.65799  0.18434  1
 O  O1  1  0.52953  0.81122  0.42002  1
 O  O2  1  0.02953  0.18878  0.57998  1
 O  O3  1  0.47047  0.31122  0.07998  1
 O  O4  1  0.75000  0.55053  0.31429  1
 O  O5  1  0.47047  0.18878  0.57998  1
 O  O6  1  0.97047  0.81122  0.42002  1
 O  O7  1  0.97047  0.68878  0.92002  1
 O  O8  1  0.02953  0.31122  0.07998  1
 O  O9  1  0.25000  0.39577  0.41366  1
 O  O10  1  0.75000  0.89577  0.08634  1
 O  O11  1  0.52953  0.68878  0.92002  1
 O  O12  1  0.25000  0.10423  0.91366  1
 O  O13  1  0.25000  0.05053  0.18571  1
 O  O14  1  0.75000  0.94947  0.81429  1
 O  O15  1  0.75000  0.60423  0.58634  1
 O  O16  1  0.25000  0.44947  0.68571  1
 S  S1  1  0.25000  0.19011  0.06324  1
 S  S2  1  0.75000  0.80989  0.93676  1
 S  S3  1  0.75000  0.69011  0.43676  1
 S  S4  1  0.25000  0.30989  0.56324  1
