CIF file written using JARVIS-Tools package.
data_CaInPd
_symmetry_space_group_name_H-M  'Pnma'
_cell_length_a       4.40527
_cell_length_b       7.28378
_cell_length_c       8.52565
_cell_angle_alpha    90
_cell_angle_beta     90
_cell_angle_gamma    90

_symmetry_Int_Tables_number  62
_chemical_formula_structural  CaInPd
_chemical_formula_sum  Ca4In4Pd4
_cell_volume  273.56299994952116
_cell_formula_units_Z  4
loop_
  _symmetry_equiv_pos_site_id
 _symmetry_equiv_pos_as_xyz
 1  'x, y, z'
loop_
 _atom_site_type_symbol
 _atom_site_label
 _atom_site_symmetry_multiplicity
 _atom_site_fract_x
 _atom_site_fract_y
 _atom_site_fract_z
 _atom_site_fract_occupancy
 Ca  Ca1  1  0.75000  0.53291  0.82004  1
 Ca  Ca2  1  0.25000  0.96709  0.32004  1
 Ca  Ca3  1  0.75000  0.03291  0.67996  1
 Ca  Ca4  1  0.25000  0.46709  0.17996  1
 In  In1  1  0.25000  0.35082  0.56367  1
 In  In2  1  0.25000  0.85082  0.93633  1
 In  In3  1  0.75000  0.14918  0.06367  1
 In  In4  1  0.75000  0.64918  0.43633  1
 Pd  Pd1  1  0.25000  0.23565  0.87459  1
 Pd  Pd2  1  0.75000  0.76435  0.12541  1
 Pd  Pd3  1  0.75000  0.26435  0.37459  1
 Pd  Pd4  1  0.25000  0.73565  0.62541  1
