CIF file written using JARVIS-Tools package.
data_NaZn13
_symmetry_space_group_name_H-M  'Fm-3c'
_cell_length_a       8.68853
_cell_length_b       8.68852
_cell_length_c       8.68853
_cell_angle_alpha    60
_cell_angle_beta     60
_cell_angle_gamma    60

_symmetry_Int_Tables_number  226
_chemical_formula_structural  NaZn13
_chemical_formula_sum  Na2Zn26
_cell_volume  463.79235393429263
_cell_formula_units_Z  2
loop_
  _symmetry_equiv_pos_site_id
 _symmetry_equiv_pos_as_xyz
 1  'x, y, z'
loop_
 _atom_site_type_symbol
 _atom_site_label
 _atom_site_symmetry_multiplicity
 _atom_site_fract_x
 _atom_site_fract_y
 _atom_site_fract_z
 _atom_site_fract_occupancy
 Na  Na1  1  0.25000  0.25000  0.25000  1
 Na  Na2  1  0.75000  0.75000  0.75000  1
 Zn  Zn1  1  0.19864  0.80136  0.44026  1
 Zn  Zn2  1  0.69864  0.05974  0.94026  1
 Zn  Zn3  1  0.94026  0.30136  0.69864  1
 Zn  Zn4  1  0.69864  0.94026  0.30136  1
 Zn  Zn5  1  0.05974  0.30136  0.94026  1
 Zn  Zn6  1  0.05974  0.94026  0.69864  1
 Zn  Zn7  1  0.94026  0.05974  0.30136  1
 Zn  Zn8  1  0.44026  0.19864  0.80136  1
 Zn  Zn9  1  0.80136  0.44026  0.19864  1
 Zn  Zn10  1  0.55974  0.19864  0.44026  1
 Zn  Zn11  1  0.80136  0.55974  0.44026  1
 Zn  Zn12  1  0.55974  0.80136  0.19864  1
 Zn  Zn13  1  0.44026  0.80136  0.55974  1
 Zn  Zn14  1  0.19864  0.44026  0.55974  1
 Zn  Zn15  1  0.19864  0.55974  0.80136  1
 Zn  Zn16  1  0.94026  0.69864  0.05974  1
 Zn  Zn17  1  0.30136  0.94026  0.05974  1
 Zn  Zn18  1  0.30136  0.69864  0.94026  1
 Zn  Zn19  1  0.69864  0.30136  0.05974  1
 Zn  Zn20  1  0.05974  0.69864  0.30136  1
 Zn  Zn21  1  0.30136  0.05974  0.69864  1
 Zn  Zn22  1  0.44026  0.55974  0.19864  1
 Zn  Zn23  1  0.55974  0.44026  0.80136  1
 Zn  Zn24  1  0.80136  0.19864  0.55974  1
 Zn  Zn25  1  0.00000  0.00000  0.00000  1
 Zn  Zn26  1  0.50000  0.50000  0.50000  1
