CIF file written using JARVIS-Tools package.
data_LiGa5O8
_symmetry_space_group_name_H-M  'P4_332'
_cell_length_a       8.2957
_cell_length_b       8.2957
_cell_length_c       8.2957
_cell_angle_alpha    90
_cell_angle_beta     90
_cell_angle_gamma    90

_symmetry_Int_Tables_number  212
_chemical_formula_structural  LiGa5O8
_chemical_formula_sum  Li4Ga20O32
_cell_volume  570.8996211478257
_cell_formula_units_Z  4
loop_
  _symmetry_equiv_pos_site_id
 _symmetry_equiv_pos_as_xyz
 1  'x, y, z'
loop_
 _atom_site_type_symbol
 _atom_site_label
 _atom_site_symmetry_multiplicity
 _atom_site_fract_x
 _atom_site_fract_y
 _atom_site_fract_z
 _atom_site_fract_occupancy
 Ga  Ga1  1  0.86496  0.61496  0.87500  1
 Ga  Ga2  1  0.11496  0.62500  0.13504  1
 Ga  Ga3  1  0.88504  0.12500  0.36496  1
 Ga  Ga4  1  0.36496  0.88504  0.12500  1
 Ga  Ga5  1  0.63504  0.38504  0.37500  1
 Ga  Ga6  1  0.12500  0.36496  0.88504  1
 Ga  Ga7  1  0.61496  0.87500  0.86496  1
 Ga  Ga8  1  0.99628  0.99628  0.99628  1
 Ga  Ga9  1  0.74628  0.75372  0.24628  1
 Ga  Ga10  1  0.24628  0.74628  0.75372  1
 Ga  Ga11  1  0.75372  0.24628  0.74628  1
 Ga  Ga12  1  0.50372  0.00372  0.49628  1
 Ga  Ga13  1  0.49628  0.50372  0.00372  1
 Ga  Ga14  1  0.00372  0.49628  0.50372  1
 Ga  Ga15  1  0.25372  0.25372  0.25372  1
 Ga  Ga16  1  0.62500  0.13504  0.11496  1
 Ga  Ga17  1  0.37500  0.63504  0.38504  1
 Ga  Ga18  1  0.87500  0.86496  0.61496  1
 Ga  Ga19  1  0.38504  0.37500  0.63504  1
 Ga  Ga20  1  0.13504  0.11496  0.62500  1
 Li  Li1  1  0.62500  0.62500  0.62500  1
 Li  Li2  1  0.12500  0.87500  0.37500  1
 Li  Li3  1  0.87500  0.37500  0.12500  1
 Li  Li4  1  0.37500  0.12500  0.87500  1
 O  O1  1  0.12570  0.38436  0.11971  1
 O  O2  1  0.38436  0.11971  0.12570  1
 O  O3  1  0.36564  0.37570  0.86971  1
 O  O4  1  0.36971  0.13436  0.62430  1
 O  O5  1  0.86971  0.36564  0.37570  1
 O  O6  1  0.11971  0.12570  0.38436  1
 O  O7  1  0.63436  0.87570  0.63029  1
 O  O8  1  0.37430  0.61564  0.61971  1
 O  O9  1  0.88718  0.11282  0.61282  1
 O  O10  1  0.61282  0.88718  0.11282  1
 O  O11  1  0.87570  0.63029  0.63436  1
 O  O12  1  0.63718  0.13718  0.36282  1
 O  O13  1  0.13718  0.36282  0.63718  1
 O  O14  1  0.86282  0.86282  0.86282  1
 O  O15  1  0.88436  0.38029  0.87430  1
 O  O16  1  0.63029  0.63436  0.87570  1
 O  O17  1  0.11564  0.88029  0.62570  1
 O  O18  1  0.61564  0.61971  0.37430  1
 O  O19  1  0.62570  0.11564  0.88029  1
 O  O20  1  0.61971  0.37430  0.61564  1
 O  O21  1  0.88029  0.62570  0.11564  1
 O  O22  1  0.38029  0.87430  0.88436  1
 O  O23  1  0.37570  0.86971  0.36564  1
 O  O24  1  0.12430  0.13029  0.86564  1
 O  O25  1  0.13436  0.62430  0.36971  1
 O  O26  1  0.86564  0.12430  0.13029  1
 O  O27  1  0.62430  0.36971  0.13436  1
 O  O28  1  0.13029  0.86564  0.12430  1
 O  O29  1  0.87430  0.88436  0.38029  1
 O  O30  1  0.38718  0.38718  0.38718  1
 O  O31  1  0.11282  0.61282  0.88718  1
 O  O32  1  0.36282  0.63718  0.13718  1
