CIF file written using JARVIS-Tools package.
data_NaAsO2
_symmetry_space_group_name_H-M  'Pbca'
_cell_length_a       5.1529
_cell_length_b       6.81175
_cell_length_c       14.2855
_cell_angle_alpha    90
_cell_angle_beta     90
_cell_angle_gamma    90

_symmetry_Int_Tables_number  61
_chemical_formula_structural  NaAsO2
_chemical_formula_sum  Na8As8O6
_cell_volume  501.42304202432825
_cell_formula_units_Z  8
loop_
  _symmetry_equiv_pos_site_id
 _symmetry_equiv_pos_as_xyz
 1  'x, y, z'
loop_
 _atom_site_type_symbol
 _atom_site_label
 _atom_site_symmetry_multiplicity
 _atom_site_fract_x
 _atom_site_fract_y
 _atom_site_fract_z
 _atom_site_fract_occupancy
 As  As1  1  0.73724  0.89704  0.82662  1
 As  As2  1  0.26276  0.60296  0.32662  1
 As  As3  1  0.76276  0.39704  0.17338  1
 As  As4  1  0.23724  0.10296  0.67338  1
 As  As5  1  0.26276  0.10296  0.17338  1
 As  As6  1  0.73724  0.39704  0.67338  1
 As  As7  1  0.23724  0.60296  0.82662  1
 As  As8  1  0.76276  0.89704  0.32662  1
 Na  Na1  1  0.24649  0.10032  0.94646  1
 Na  Na2  1  0.74649  0.89968  0.55354  1
 Na  Na3  1  0.25351  0.60032  0.05354  1
 Na  Na4  1  0.75351  0.39968  0.44646  1
 Na  Na5  1  0.75351  0.89968  0.05354  1
 Na  Na6  1  0.25351  0.10032  0.44646  1
 Na  Na7  1  0.74649  0.39968  0.94646  1
 Na  Na8  1  0.24649  0.60032  0.55354  1
 O  O1  1  0.70461  0.57489  0.09019  1
 O  O2  1  0.06998  0.30888  0.11931  1
 O  O3  1  0.56998  0.69112  0.38069  1
 O  O4  1  0.43002  0.80888  0.88069  1
 O  O5  1  0.93002  0.19112  0.61931  1
 O  O6  1  0.93002  0.69112  0.88069  1
 O  O7  1  0.43002  0.30888  0.61931  1
 O  O8  1  0.70461  0.07489  0.40981  1
 O  O9  1  0.20461  0.92511  0.09019  1
 O  O10  1  0.29539  0.42511  0.90981  1
 O  O11  1  0.20461  0.42511  0.40981  1
 O  O12  1  0.79539  0.07489  0.90981  1
 O  O13  1  0.29539  0.92511  0.59019  1
 O  O14  1  0.56998  0.19112  0.11931  1
 O  O15  1  0.06998  0.80888  0.38069  1
 O  O16  1  0.79539  0.57489  0.59019  1
