CIF file written using JARVIS-Tools package.
data_MoIrO6
_symmetry_space_group_name_H-M  'P2_1/c'
_cell_length_a       5.178
_cell_length_b       5.27459
_cell_length_c       9.06569
_cell_angle_alpha    90
_cell_angle_beta     124.893
_cell_angle_gamma    90

_symmetry_Int_Tables_number  14
_chemical_formula_structural  MoIrO6
_chemical_formula_sum  Mo2Ir2O2
_cell_volume  203.08710430399725
_cell_formula_units_Z  2
loop_
  _symmetry_equiv_pos_site_id
 _symmetry_equiv_pos_as_xyz
 1  'x, y, z'
loop_
 _atom_site_type_symbol
 _atom_site_label
 _atom_site_symmetry_multiplicity
 _atom_site_fract_x
 _atom_site_fract_y
 _atom_site_fract_z
 _atom_site_fract_occupancy
 Ir  Ir1  1  0.50000  0.50000  0.50000  1
 Ir  Ir2  1  0.50000  0.00000  -0.00000  1
 Mo  Mo1  1  0.00000  0.50000  0.00000  1
 Mo  Mo2  1  -0.00000  0.00000  0.50000  1
 O  O1  1  0.67392  0.48661  0.75009  1
 O  O2  1  0.83855  0.20270  0.03859  1
 O  O3  1  0.26210  0.20221  0.46189  1
 O  O4  1  0.73790  0.70221  0.03811  1
 O  O5  1  0.16145  0.70270  0.46141  1
 O  O6  1  0.32608  0.98661  0.74991  1
 O  O7  1  0.67392  0.01339  0.25009  1
 O  O8  1  0.83855  0.29730  0.53859  1
 O  O9  1  0.26210  0.29779  0.96189  1
 O  O10  1  0.16145  0.79730  0.96141  1
 O  O11  1  0.73790  0.79779  0.53811  1
 O  O12  1  0.32608  0.51339  0.24991  1
