CIF file written using JARVIS-Tools package.
data_CaBe2Ge2
_symmetry_space_group_name_H-M  'P4/nmm'
_cell_length_a       4.02828
_cell_length_b       4.02828
_cell_length_c       9.83399
_cell_angle_alpha    90
_cell_angle_beta     90
_cell_angle_gamma    90

_symmetry_Int_Tables_number  129
_chemical_formula_structural  CaBe2Ge2
_chemical_formula_sum  Ca2Be4Ge4
_cell_volume  159.57696655726863
_cell_formula_units_Z  2
loop_
  _symmetry_equiv_pos_site_id
 _symmetry_equiv_pos_as_xyz
 1  'x, y, z'
loop_
 _atom_site_type_symbol
 _atom_site_label
 _atom_site_symmetry_multiplicity
 _atom_site_fract_x
 _atom_site_fract_y
 _atom_site_fract_z
 _atom_site_fract_occupancy
 Be  Be1  1  0.50000  0.00000  0.86491  1
 Be  Be2  1  0.00000  0.50000  0.13509  1
 Be  Be3  1  0.00000  0.00000  0.50000  1
 Be  Be4  1  0.50000  0.50000  0.50000  1
 Ca  Ca1  1  0.00000  0.50000  0.74550  1
 Ca  Ca2  1  0.50000  0.00000  0.25450  1
 Ge  Ge1  1  0.00000  0.00000  0.00000  1
 Ge  Ge2  1  0.50000  0.50000  0.00000  1
 Ge  Ge3  1  0.00000  0.50000  0.36763  1
 Ge  Ge4  1  0.50000  0.00000  0.63237  1
