CIF file written using JARVIS-Tools package.
data_SrSeO3
_symmetry_space_group_name_H-M  'Pnma'
_cell_length_a       4.46394
_cell_length_b       5.52031
_cell_length_c       12.5803
_cell_angle_alpha    90
_cell_angle_beta     90
_cell_angle_gamma    90

_symmetry_Int_Tables_number  62
_chemical_formula_structural  SrSeO3
_chemical_formula_sum  Sr4Se4O2
_cell_volume  310.007752227402
_cell_formula_units_Z  4
loop_
  _symmetry_equiv_pos_site_id
 _symmetry_equiv_pos_as_xyz
 1  'x, y, z'
loop_
 _atom_site_type_symbol
 _atom_site_label
 _atom_site_symmetry_multiplicity
 _atom_site_fract_x
 _atom_site_fract_y
 _atom_site_fract_z
 _atom_site_fract_occupancy
 O  O1  1  0.88440  0.75000  0.05322  1
 O  O2  1  0.97106  0.00882  0.33546  1
 O  O3  1  0.47106  0.99118  0.16454  1
 O  O4  1  0.11560  0.25000  0.94678  1
 O  O5  1  0.38440  0.25000  0.44678  1
 O  O6  1  0.97106  0.49118  0.33546  1
 O  O7  1  0.52894  0.49118  0.83546  1
 O  O8  1  0.61560  0.75000  0.55322  1
 O  O9  1  0.52894  0.00882  0.83546  1
 O  O10  1  0.47106  0.50882  0.16454  1
 O  O11  1  0.02894  0.50882  0.66454  1
 O  O12  1  0.02894  0.99118  0.66454  1
 Se  Se1  1  0.50403  0.75000  0.07750  1
 Se  Se2  1  0.00403  0.25000  0.42250  1
 Se  Se3  1  0.99597  0.75000  0.57750  1
 Se  Se4  1  0.49597  0.25000  0.92250  1
 Sr  Sr1  1  0.02410  0.75000  0.84858  1
 Sr  Sr2  1  0.47590  0.75000  0.34858  1
 Sr  Sr3  1  0.97590  0.25000  0.15142  1
 Sr  Sr4  1  0.52410  0.25000  0.65142  1
