CIF file written using JARVIS-Tools package.
data_Tl2S5
_symmetry_space_group_name_H-M  'P2_12_12_1'
_cell_length_a       6.59556
_cell_length_b       6.69989
_cell_length_c       16.8087
_cell_angle_alpha    90
_cell_angle_beta     90
_cell_angle_gamma    90

_symmetry_Int_Tables_number  19
_chemical_formula_structural  Tl2S5
_chemical_formula_sum  Tl8S20
_cell_volume  742.7671980262023
_cell_formula_units_Z  4
loop_
  _symmetry_equiv_pos_site_id
 _symmetry_equiv_pos_as_xyz
 1  'x, y, z'
loop_
 _atom_site_type_symbol
 _atom_site_label
 _atom_site_symmetry_multiplicity
 _atom_site_fract_x
 _atom_site_fract_y
 _atom_site_fract_z
 _atom_site_fract_occupancy
 S  S1  1  0.07169  0.37433  0.30053  1
 S  S2  1  0.93604  0.75904  0.82736  1
 S  S3  1  0.43604  0.74096  0.17264  1
 S  S4  1  0.06396  0.25904  0.67264  1
 S  S5  1  0.56396  0.24096  0.32736  1
 S  S6  1  0.23477  0.83418  0.85214  1
 S  S7  1  0.92831  0.87433  0.19947  1
 S  S8  1  0.76523  0.33418  0.64786  1
 S  S9  1  0.26523  0.16582  0.35214  1
 S  S10  1  0.73477  0.66582  0.14786  1
 S  S11  1  0.42444  0.92808  0.52266  1
 S  S12  1  0.92046  0.13179  0.12666  1
 S  S13  1  0.07556  0.07192  0.02266  1
 S  S14  1  0.42831  0.62567  0.80053  1
 S  S15  1  0.42046  0.36821  0.87334  1
 S  S16  1  0.57169  0.12567  0.69947  1
 S  S17  1  0.57954  0.86821  0.62666  1
 S  S18  1  0.07954  0.63179  0.37334  1
 S  S19  1  0.57556  0.42808  0.97734  1
 S  S20  1  0.92444  0.57192  0.47734  1
 Tl  Tl1  1  0.33239  0.40021  0.53044  1
 Tl  Tl2  1  0.83239  0.09979  0.46956  1
 Tl  Tl3  1  0.66761  0.90021  0.96956  1
 Tl  Tl4  1  0.16761  0.59979  0.03044  1
 Tl  Tl5  1  0.07115  0.79855  0.64883  1
 Tl  Tl6  1  0.57115  0.70145  0.35117  1
 Tl  Tl7  1  0.92885  0.29855  0.85117  1
 Tl  Tl8  1  0.42885  0.20145  0.14883  1
