CIF file written using JARVIS-Tools package.
data_NbCoB2
_symmetry_space_group_name_H-M  'Pnma'
_cell_length_a       3.15203
_cell_length_b       5.99407
_cell_length_c       8.23571
_cell_angle_alpha    90
_cell_angle_beta     90
_cell_angle_gamma    90

_symmetry_Int_Tables_number  62
_chemical_formula_structural  NbCoB2
_chemical_formula_sum  Nb4Co4B8
_cell_volume  155.601183643834
_cell_formula_units_Z  4
loop_
  _symmetry_equiv_pos_site_id
 _symmetry_equiv_pos_as_xyz
 1  'x, y, z'
loop_
 _atom_site_type_symbol
 _atom_site_label
 _atom_site_symmetry_multiplicity
 _atom_site_fract_x
 _atom_site_fract_y
 _atom_site_fract_z
 _atom_site_fract_occupancy
 B  B1  1  0.25000  0.66717  0.33001  1
 B  B2  1  0.75000  0.33283  0.66999  1
 B  B3  1  0.25000  0.16717  0.16999  1
 B  B4  1  0.75000  0.83283  0.83001  1
 B  B5  1  0.25000  0.73288  0.92245  1
 B  B6  1  0.75000  0.76712  0.42245  1
 B  B7  1  0.25000  0.23288  0.57755  1
 B  B8  1  0.75000  0.26712  0.07755  1
 Co  Co1  1  0.75000  0.00655  0.61363  1
 Co  Co2  1  0.75000  0.50655  0.88637  1
 Co  Co3  1  0.25000  0.99345  0.38637  1
 Co  Co4  1  0.25000  0.49345  0.11363  1
 Nb  Nb1  1  0.25000  0.63515  0.63216  1
 Nb  Nb2  1  0.75000  0.36485  0.36784  1
 Nb  Nb3  1  0.25000  0.13515  0.86784  1
 Nb  Nb4  1  0.75000  0.86485  0.13216  1
