CIF file written using JARVIS-Tools package.
data_YWN3
_symmetry_space_group_name_H-M  'R3c'
_cell_length_a       5.58139
_cell_length_b       5.58139
_cell_length_c       5.61426
_cell_angle_alpha    60.1935
_cell_angle_beta     60.1936
_cell_angle_gamma    60

_symmetry_Int_Tables_number  161
_chemical_formula_structural  YWN3
_chemical_formula_sum  Y2W2N6
_cell_volume  124.02996479322769
_cell_formula_units_Z  2
loop_
  _symmetry_equiv_pos_site_id
 _symmetry_equiv_pos_as_xyz
 1  'x, y, z'
loop_
 _atom_site_type_symbol
 _atom_site_label
 _atom_site_symmetry_multiplicity
 _atom_site_fract_x
 _atom_site_fract_y
 _atom_site_fract_z
 _atom_site_fract_occupancy
 N  N1  1  0.32268  0.15291  0.79247  1
 N  N2  1  0.65291  0.82268  0.29247  1
 N  N3  1  0.73194  0.32268  0.79247  1
 N  N4  1  0.23194  0.65291  0.29247  1
 N  N5  1  0.82268  0.23194  0.29247  1
 N  N6  1  0.15291  0.73194  0.79247  1
 W  W1  1  0.50763  0.50763  0.47710  1
 W  W2  1  0.00763  0.00763  0.97710  1
 Y  Y1  1  0.26653  0.26653  0.20040  1
 Y  Y2  1  0.76653  0.76653  0.70040  1
