CIF file written using JARVIS-Tools package.
data_Al6C3N2
_symmetry_space_group_name_H-M  'R-3m'
_cell_length_a       13.6635
_cell_length_b       13.6635
_cell_length_c       13.6635
_cell_angle_alpha    13.7688
_cell_angle_beta     13.7687
_cell_angle_gamma    13.7688

_symmetry_Int_Tables_number  166
_chemical_formula_structural  Al6C3N2
_chemical_formula_sum  Al6C3N2
_cell_volume  125.73940296743311
_cell_formula_units_Z  1
loop_
  _symmetry_equiv_pos_site_id
 _symmetry_equiv_pos_as_xyz
 1  'x, y, z'
loop_
 _atom_site_type_symbol
 _atom_site_label
 _atom_site_symmetry_multiplicity
 _atom_site_fract_x
 _atom_site_fract_y
 _atom_site_fract_z
 _atom_site_fract_occupancy
 Al  Al1  1  0.30846  0.30846  0.30846  1
 Al  Al2  1  0.91254  0.91254  0.91254  1
 Al  Al3  1  0.18913  0.18913  0.18913  1
 Al  Al4  1  0.81022  0.81022  0.81022  1
 Al  Al5  1  0.08680  0.08680  0.08680  1
 Al  Al6  1  0.69088  0.69088  0.69088  1
 C  C1  1  0.99967  0.99967  0.99967  1
 C  C2  1  0.13452  0.13452  0.13452  1
 C  C3  1  0.86482  0.86482  0.86482  1
 N  N1  1  0.73602  0.73602  0.73602  1
 N  N2  1  0.26332  0.26332  0.26332  1
