CIF file written using JARVIS-Tools package.
data_Na3VBAsO7
_symmetry_space_group_name_H-M  'P2_1/m'
_cell_length_a       5.31375
_cell_length_b       6.67877
_cell_length_c       9.10159
_cell_angle_alpha    90
_cell_angle_beta     91.387
_cell_angle_gamma    90

_symmetry_Int_Tables_number  11
_chemical_formula_structural  Na3VBAsO7
_chemical_formula_sum  Na6V2B2As2O4
_cell_volume  322.91408881284457
_cell_formula_units_Z  2
loop_
  _symmetry_equiv_pos_site_id
 _symmetry_equiv_pos_as_xyz
 1  'x, y, z'
loop_
 _atom_site_type_symbol
 _atom_site_label
 _atom_site_symmetry_multiplicity
 _atom_site_fract_x
 _atom_site_fract_y
 _atom_site_fract_z
 _atom_site_fract_occupancy
 As  As1  1  0.71244  0.25000  0.57632  1
 As  As2  1  0.28756  0.75000  0.42368  1
 B  B1  1  0.72314  0.75000  0.93885  1
 B  B2  1  0.27686  0.25000  0.06115  1
 Na  Na1  1  0.76411  0.25000  0.92522  1
 Na  Na2  1  0.23589  0.75000  0.07478  1
 Na  Na3  1  0.24634  0.50041  0.75671  1
 Na  Na4  1  0.75366  0.49959  0.24329  1
 Na  Na5  1  0.75366  0.00041  0.24329  1
 Na  Na6  1  0.24634  0.99959  0.75671  1
 O  O1  1  0.96054  0.75000  0.87554  1
 O  O2  1  0.03946  0.25000  0.12446  1
 O  O3  1  0.67883  0.75000  0.08355  1
 O  O4  1  0.47006  0.25000  0.17193  1
 O  O5  1  0.20523  0.94868  0.31031  1
 O  O6  1  0.20523  0.55132  0.31031  1
 O  O7  1  0.87149  0.25000  0.41449  1
 O  O8  1  0.52994  0.75000  0.82807  1
 O  O9  1  0.39160  0.25000  0.53763  1
 O  O10  1  0.79477  0.44868  0.68969  1
 O  O11  1  0.79477  0.05132  0.68969  1
 O  O12  1  0.60840  0.75000  0.46237  1
 O  O13  1  0.12851  0.75000  0.58551  1
 O  O14  1  0.32117  0.25000  0.91645  1
 V  V1  1  0.78085  0.75000  0.67365  1
 V  V2  1  0.21915  0.25000  0.32635  1
