CIF file written using JARVIS-Tools package.
data_Na2Si2S5
_symmetry_space_group_name_H-M  'Cmcm'
_cell_length_a       8.96073
_cell_length_b       8.96074
_cell_length_c       10.3747
_cell_angle_alpha    90
_cell_angle_beta     90
_cell_angle_gamma    89.5235

_symmetry_Int_Tables_number  63
_chemical_formula_structural  Na2Si2S5
_chemical_formula_sum  Na8Si8S20
_cell_volume  833.003231420992
_cell_formula_units_Z  4
loop_
  _symmetry_equiv_pos_site_id
 _symmetry_equiv_pos_as_xyz
 1  'x, y, z'
loop_
 _atom_site_type_symbol
 _atom_site_label
 _atom_site_symmetry_multiplicity
 _atom_site_fract_x
 _atom_site_fract_y
 _atom_site_fract_z
 _atom_site_fract_occupancy
 Na  Na1  1  0.91426  0.41647  0.75000  1
 Na  Na2  1  0.84931  0.84931  0.50000  1
 Na  Na3  1  0.84931  0.84931  0.00000  1
 Na  Na4  1  0.15069  0.15069  0.50000  1
 Na  Na5  1  0.58353  0.08574  0.75000  1
 Na  Na6  1  0.41647  0.91426  0.25000  1
 Na  Na7  1  0.08574  0.58353  0.25000  1
 Na  Na8  1  0.15069  0.15069  0.00000  1
 S  S1  1  0.27484  0.18634  0.75000  1
 S  S2  1  0.18634  0.27484  0.25000  1
 S  S3  1  0.78964  0.49258  0.42045  1
 S  S4  1  0.15814  0.84186  0.41991  1
 S  S5  1  0.84186  0.15814  0.91991  1
 S  S6  1  0.21036  0.50742  0.92045  1
 S  S7  1  0.15814  0.84186  0.08009  1
 S  S8  1  0.84545  0.15455  0.25000  1
 S  S9  1  0.50742  0.21036  0.07955  1
 S  S10  1  0.55244  0.44756  0.75000  1
 S  S11  1  0.49258  0.78964  0.57955  1
 S  S12  1  0.84186  0.15814  0.58009  1
 S  S13  1  0.21036  0.50742  0.57955  1
 S  S14  1  0.44756  0.55244  0.25000  1
 S  S15  1  0.50742  0.21036  0.42045  1
 S  S16  1  0.49258  0.78964  0.92045  1
 S  S17  1  0.81366  0.72516  0.75000  1
 S  S18  1  0.72516  0.81366  0.25000  1
 S  S19  1  0.78964  0.49258  0.07955  1
 S  S20  1  0.15455  0.84545  0.75000  1
 Si  Si1  1  0.25421  0.74579  0.58204  1
 Si  Si2  1  0.68449  0.58773  0.25000  1
 Si  Si3  1  0.41227  0.31551  0.25000  1
 Si  Si4  1  0.58773  0.68449  0.75000  1
 Si  Si5  1  0.74579  0.25421  0.08204  1
 Si  Si6  1  0.74579  0.25421  0.41796  1
 Si  Si7  1  0.31551  0.41227  0.75000  1
 Si  Si8  1  0.25421  0.74579  0.91796  1
