CIF file written using JARVIS-Tools package.
data_TlCu2O2
_symmetry_space_group_name_H-M  'Imma'
_cell_length_a       5.57643
_cell_length_b       6.2001
_cell_length_c       6.14911
_cell_angle_alpha    120.275
_cell_angle_beta     116.964
_cell_angle_gamma    90

_symmetry_Int_Tables_number  74
_chemical_formula_structural  TlCu2O2
_chemical_formula_sum  Tl2Cu4O4
_cell_volume  156.26378362808143
_cell_formula_units_Z  2
loop_
  _symmetry_equiv_pos_site_id
 _symmetry_equiv_pos_as_xyz
 1  'x, y, z'
loop_
 _atom_site_type_symbol
 _atom_site_label
 _atom_site_symmetry_multiplicity
 _atom_site_fract_x
 _atom_site_fract_y
 _atom_site_fract_z
 _atom_site_fract_occupancy
 Cu  Cu1  1  0.00000  -0.00000  0.50000  1
 Cu  Cu2  1  0.50000  0.00000  0.50000  1
 Cu  Cu3  1  0.50000  -0.00000  -0.00000  1
 Cu  Cu4  1  0.50000  0.50000  -0.00000  1
 O  O1  1  0.29884  0.26271  0.59768  1
 O  O2  1  0.70116  0.73729  0.40232  1
 O  O3  1  0.70116  0.16503  0.40232  1
 O  O4  1  0.29884  0.83497  0.59768  1
 Tl  Tl1  1  0.89372  0.64372  0.78744  1
 Tl  Tl2  1  0.10628  0.35628  0.21256  1
