CIF file written using JARVIS-Tools package.
data_Na2DyPCO7
_symmetry_space_group_name_H-M  'P2_1/m'
_cell_length_a       9.39552
_cell_length_b       6.97225
_cell_length_c       5.02854
_cell_angle_alpha    90
_cell_angle_beta     91.0139
_cell_angle_gamma    90

_symmetry_Int_Tables_number  11
_chemical_formula_structural  Na2DyPCO7
_chemical_formula_sum  Na4Dy2P2C2O4
_cell_volume  329.35742917074003
_cell_formula_units_Z  2
loop_
  _symmetry_equiv_pos_site_id
 _symmetry_equiv_pos_as_xyz
 1  'x, y, z'
loop_
 _atom_site_type_symbol
 _atom_site_label
 _atom_site_symmetry_multiplicity
 _atom_site_fract_x
 _atom_site_fract_y
 _atom_site_fract_z
 _atom_site_fract_occupancy
 C  C1  1  0.08275  0.75000  0.73070  1
 C  C2  1  0.91725  0.25000  0.26930  1
 Dy  Dy1  1  0.37488  0.75000  0.77170  1
 Dy  Dy2  1  0.62512  0.25000  0.22830  1
 Na  Na1  1  0.20850  0.48811  0.23358  1
 Na  Na2  1  0.20850  0.01189  0.23358  1
 Na  Na3  1  0.79150  0.51189  0.76642  1
 Na  Na4  1  0.79150  0.98811  0.76642  1
 O  O1  1  0.05048  0.25000  0.30074  1
 O  O2  1  0.85288  0.25000  0.03630  1
 O  O3  1  0.17047  0.75000  0.52791  1
 O  O4  1  0.34531  0.06802  0.81498  1
 O  O5  1  0.34531  0.43198  0.81498  1
 O  O6  1  0.14712  0.75000  0.96370  1
 O  O7  1  0.39542  0.25000  0.38672  1
 O  O8  1  0.65469  0.93198  0.18502  1
 O  O9  1  0.57664  0.25000  0.75546  1
 O  O10  1  0.65469  0.56802  0.18502  1
 O  O11  1  0.42336  0.75000  0.24454  1
 O  O12  1  0.82953  0.25000  0.47209  1
 O  O13  1  0.60458  0.75000  0.61328  1
 O  O14  1  0.94952  0.75000  0.69926  1
 P  P1  1  0.58847  0.75000  0.30443  1
 P  P2  1  0.41153  0.25000  0.69557  1
