CIF file written using JARVIS-Tools package.
data_YAl3Ni
_symmetry_space_group_name_H-M  'Pnma'
_cell_length_a       4.06166
_cell_length_b       8.16498
_cell_length_c       10.6628
_cell_angle_alpha    90
_cell_angle_beta     90
_cell_angle_gamma    90

_symmetry_Int_Tables_number  62
_chemical_formula_structural  YAl3Ni
_chemical_formula_sum  Y4Al2Ni4
_cell_volume  353.6139251686823
_cell_formula_units_Z  4
loop_
  _symmetry_equiv_pos_site_id
 _symmetry_equiv_pos_as_xyz
 1  'x, y, z'
loop_
 _atom_site_type_symbol
 _atom_site_label
 _atom_site_symmetry_multiplicity
 _atom_site_fract_x
 _atom_site_fract_y
 _atom_site_fract_z
 _atom_site_fract_occupancy
 Al  Al1  1  0.75000  0.61521  0.28783  1
 Al  Al2  1  0.75000  0.94397  0.58288  1
 Al  Al3  1  0.75000  0.64256  0.72120  1
 Al  Al4  1  0.25000  0.88479  0.78783  1
 Al  Al5  1  0.25000  0.35744  0.27880  1
 Al  Al6  1  0.75000  0.14256  0.77880  1
 Al  Al7  1  0.25000  0.85744  0.22120  1
 Al  Al8  1  0.25000  0.05603  0.41712  1
 Al  Al9  1  0.25000  0.38479  0.71217  1
 Al  Al10  1  0.75000  0.11521  0.21217  1
 Al  Al11  1  0.25000  0.55603  0.08288  1
 Al  Al12  1  0.75000  0.44397  0.91712  1
 Ni  Ni1  1  0.75000  0.89551  0.35620  1
 Ni  Ni2  1  0.75000  0.39551  0.14380  1
 Ni  Ni3  1  0.25000  0.60449  0.85620  1
 Ni  Ni4  1  0.25000  0.10449  0.64380  1
 Y  Y1  1  0.75000  0.31514  0.49088  1
 Y  Y2  1  0.25000  0.18486  0.99088  1
 Y  Y3  1  0.75000  0.81514  0.00912  1
 Y  Y4  1  0.25000  0.68486  0.50912  1
