CIF file written using JARVIS-Tools package.
data_Th7Te12
_symmetry_space_group_name_H-M  'P-6'
_cell_length_a       12.59
_cell_length_b       12.59
_cell_length_c       4.36798
_cell_angle_alpha    90
_cell_angle_beta     90
_cell_angle_gamma    120

_symmetry_Int_Tables_number  174
_chemical_formula_structural  Th7Te12
_chemical_formula_sum  Th7Te2
_cell_volume  599.6021296207663
_cell_formula_units_Z  1
loop_
  _symmetry_equiv_pos_site_id
 _symmetry_equiv_pos_as_xyz
 1  'x, y, z'
loop_
 _atom_site_type_symbol
 _atom_site_label
 _atom_site_symmetry_multiplicity
 _atom_site_fract_x
 _atom_site_fract_y
 _atom_site_fract_z
 _atom_site_fract_occupancy
 Te  Te1  1  0.00419  0.21791  0.50000  1
 Te  Te2  1  0.99149  0.74433  0.00000  1
 Te  Te3  1  0.25567  0.24716  0.00000  1
 Te  Te4  1  0.38643  0.52182  0.50000  1
 Te  Te5  1  0.62417  0.49226  0.00000  1
 Te  Te6  1  0.75284  0.00851  0.00000  1
 Te  Te7  1  0.86808  0.37583  0.00000  1
 Te  Te8  1  0.47818  0.86461  0.50000  1
 Te  Te9  1  0.50774  0.13192  0.00000  1
 Te  Te10  1  0.13539  0.61357  0.50000  1
 Te  Te11  1  0.78209  0.78628  0.50000  1
 Te  Te12  1  0.21372  0.99581  0.50000  1
 Th  Th1  1  0.00000  0.00000  0.00000  1
 Th  Th2  1  0.71215  0.16474  0.50000  1
 Th  Th3  1  0.45259  0.28785  0.50000  1
 Th  Th4  1  0.83526  0.54741  0.50000  1
 Th  Th5  1  0.16237  0.43930  0.00000  1
 Th  Th6  1  0.27693  0.83763  0.00000  1
 Th  Th7  1  0.56070  0.72307  0.00000  1
