CIF file written using JARVIS-Tools package.
data_P3Rh
_symmetry_space_group_name_H-M  'Im-3'
_cell_length_a       7.00937
_cell_length_b       7.00937
_cell_length_c       7.00937
_cell_angle_alpha    109.471
_cell_angle_beta     109.471
_cell_angle_gamma    109.471

_symmetry_Int_Tables_number  204
_chemical_formula_structural  P3Rh
_chemical_formula_sum  P2Rh4
_cell_volume  265.10358516713785
_cell_formula_units_Z  4
loop_
  _symmetry_equiv_pos_site_id
 _symmetry_equiv_pos_as_xyz
 1  'x, y, z'
loop_
 _atom_site_type_symbol
 _atom_site_label
 _atom_site_symmetry_multiplicity
 _atom_site_fract_x
 _atom_site_fract_y
 _atom_site_fract_z
 _atom_site_fract_occupancy
 P  P1  1  0.49443  0.13973  0.35470  1
 P  P2  1  0.13973  0.64530  0.78503  1
 P  P3  1  0.35470  0.21497  0.86027  1
 P  P4  1  0.86027  0.64530  0.50557  1
 P  P5  1  0.64530  0.78503  0.13973  1
 P  P6  1  0.86027  0.35470  0.21497  1
 P  P7  1  0.64530  0.50557  0.86027  1
 P  P8  1  0.35470  0.49443  0.13973  1
 P  P9  1  0.13973  0.35470  0.49443  1
 P  P10  1  0.78503  0.13973  0.64530  1
 P  P11  1  0.21497  0.86027  0.35470  1
 P  P12  1  0.50557  0.86027  0.64530  1
 Rh  Rh1  1  0.50000  0.50000  0.50000  1
 Rh  Rh2  1  0.00000  0.50000  -0.00000  1
 Rh  Rh3  1  0.00000  0.00000  0.50000  1
 Rh  Rh4  1  0.50000  0.00000  0.00000  1
