CIF file written using JARVIS-Tools package.
data_Be2W
_symmetry_space_group_name_H-M  'P6_3/mmc'
_cell_length_a       4.45741
_cell_length_b       4.45741
_cell_length_c       7.33223
_cell_angle_alpha    90
_cell_angle_beta     90
_cell_angle_gamma    120

_symmetry_Int_Tables_number  194
_chemical_formula_structural  Be2W
_chemical_formula_sum  Be8W4
_cell_volume  126.16266606301645
_cell_formula_units_Z  4
loop_
  _symmetry_equiv_pos_site_id
 _symmetry_equiv_pos_as_xyz
 1  'x, y, z'
loop_
 _atom_site_type_symbol
 _atom_site_label
 _atom_site_symmetry_multiplicity
 _atom_site_fract_x
 _atom_site_fract_y
 _atom_site_fract_z
 _atom_site_fract_occupancy
 Be  Be1  1  0.00000  0.00000  0.00000  1
 Be  Be2  1  0.00000  0.00000  0.50000  1
 Be  Be3  1  0.83018  0.66036  0.25000  1
 Be  Be4  1  0.16982  0.83018  0.75000  1
 Be  Be5  1  0.66036  0.83018  0.75000  1
 Be  Be6  1  0.33964  0.16982  0.25000  1
 Be  Be7  1  0.83018  0.16982  0.25000  1
 Be  Be8  1  0.16982  0.33964  0.75000  1
 W  W1  1  0.33333  0.66667  0.06263  1
 W  W2  1  0.66667  0.33333  0.56263  1
 W  W3  1  0.66667  0.33333  0.93737  1
 W  W4  1  0.33333  0.66667  0.43737  1
