CIF file written using JARVIS-Tools package.
data_BaPb
_symmetry_space_group_name_H-M  'Cmcm'
_cell_length_a       4.85697
_cell_length_b       5.34662
_cell_length_c       6.91937
_cell_angle_alpha    112.728
_cell_angle_beta     90
_cell_angle_gamma    90

_symmetry_Int_Tables_number  63
_chemical_formula_structural  BaPb
_chemical_formula_sum  Ba2Pb2
_cell_volume  165.73254496761
_cell_formula_units_Z  2
loop_
  _symmetry_equiv_pos_site_id
 _symmetry_equiv_pos_as_xyz
 1  'x, y, z'
loop_
 _atom_site_type_symbol
 _atom_site_label
 _atom_site_symmetry_multiplicity
 _atom_site_fract_x
 _atom_site_fract_y
 _atom_site_fract_z
 _atom_site_fract_occupancy
 Ba  Ba1  1  0.75000  0.13331  0.26662  1
 Ba  Ba2  1  0.25000  0.86669  0.73338  1
 Pb  Pb1  1  0.75000  0.42053  0.84105  1
 Pb  Pb2  1  0.25000  0.57947  0.15895  1
