CIF file written using JARVIS-Tools package.
data_InSb2S4Cl
_symmetry_space_group_name_H-M  'C2/m'
_cell_length_a       3.9016
_cell_length_b       10.1857
_cell_length_c       11.2876
_cell_angle_alpha    111.166
_cell_angle_beta     99.9496
_cell_angle_gamma    101.04

_symmetry_Int_Tables_number  12
_chemical_formula_structural  InSb2S4Cl
_chemical_formula_sum  In2Sb4S8Cl2
_cell_volume  395.9701467550229
_cell_formula_units_Z  2
loop_
  _symmetry_equiv_pos_site_id
 _symmetry_equiv_pos_as_xyz
 1  'x, y, z'
loop_
 _atom_site_type_symbol
 _atom_site_label
 _atom_site_symmetry_multiplicity
 _atom_site_fract_x
 _atom_site_fract_y
 _atom_site_fract_z
 _atom_site_fract_occupancy
 Cl  Cl1  1  0.07477  0.67840  0.47100  1
 Cl  Cl2  1  0.92523  0.32160  0.52900  1
 In  In1  1  0.27444  0.11243  0.43651  1
 In  In2  1  0.72556  0.88757  0.56349  1
 S  S1  1  0.63299  0.91894  0.34702  1
 S  S2  1  0.31708  0.49804  0.13613  1
 S  S3  1  0.18121  0.14508  0.21736  1
 S  S4  1  0.57717  0.17542  0.97883  1
 S  S5  1  0.81879  0.85492  0.78264  1
 S  S6  1  0.36701  0.08106  0.65298  1
 S  S7  1  0.68292  0.50196  0.86387  1
 S  S8  1  0.42283  0.82458  0.02117  1
 Sb  Sb1  1  0.77385  0.32323  0.22455  1
 Sb  Sb2  1  0.10433  0.30740  0.90108  1
 Sb  Sb3  1  0.22615  0.67677  0.77545  1
 Sb  Sb4  1  0.89567  0.69260  0.09892  1
