CIF file written using JARVIS-Tools package.
data_C
_symmetry_space_group_name_H-M  'P-3m1'
_cell_length_a       2.46454
_cell_length_b       2.46454
_cell_length_c       24.1061
_cell_angle_alpha    90.0263
_cell_angle_beta     89.9737
_cell_angle_gamma    119.999

_symmetry_Int_Tables_number  164
_chemical_formula_structural  C
_chemical_formula_sum  C4
_cell_volume  126.80414380918296
_cell_formula_units_Z  4
loop_
  _symmetry_equiv_pos_site_id
 _symmetry_equiv_pos_as_xyz
 1  'x, y, z'
loop_
 _atom_site_type_symbol
 _atom_site_label
 _atom_site_symmetry_multiplicity
 _atom_site_fract_x
 _atom_site_fract_y
 _atom_site_fract_z
 _atom_site_fract_occupancy
 C  C1  1  0.00034  0.99966  0.51566  1
 C  C2  1  0.99966  0.00034  0.65529  1
 C  C3  1  0.66633  0.33367  0.65531  1
 C  C4  1  0.33367  0.66633  0.51563  1
