CIF file written using JARVIS-Tools package.
data_Na3BeAlSi2O8
_symmetry_space_group_name_H-M  'P2_12_12'
_cell_length_a       6.88605
_cell_length_b       7.23092
_cell_length_c       7.33361
_cell_angle_alpha    90
_cell_angle_beta     90
_cell_angle_gamma    90

_symmetry_Int_Tables_number  18
_chemical_formula_structural  Na3BeAlSi2O8
_chemical_formula_sum  Na6Be2Al2Si4O6
_cell_volume  365.15886727262114
_cell_formula_units_Z  2
loop_
  _symmetry_equiv_pos_site_id
 _symmetry_equiv_pos_as_xyz
 1  'x, y, z'
loop_
 _atom_site_type_symbol
 _atom_site_label
 _atom_site_symmetry_multiplicity
 _atom_site_fract_x
 _atom_site_fract_y
 _atom_site_fract_z
 _atom_site_fract_occupancy
 Al  Al1  1  0.50000  0.50000  0.96288  1
 Al  Al2  1  0.00000  0.00000  0.03712  1
 Be  Be1  1  0.50000  0.00000  0.43140  1
 Be  Be2  1  0.00000  0.50000  0.56860  1
 Na  Na1  1  0.25029  0.78572  0.67816  1
 Na  Na2  1  0.24971  0.28572  0.32184  1
 Na  Na3  1  0.00000  0.50000  0.96679  1
 Na  Na4  1  0.50000  0.00000  0.03321  1
 Na  Na5  1  0.75029  0.71428  0.32184  1
 Na  Na6  1  0.74971  0.21428  0.67816  1
 O  O1  1  0.32371  0.08336  0.55626  1
 O  O2  1  0.70409  0.46113  0.10350  1
 O  O3  1  0.17629  0.58336  0.44374  1
 O  O4  1  0.79591  0.96113  0.89650  1
 O  O5  1  0.20409  0.03887  0.89650  1
 O  O6  1  0.42015  0.83505  0.29227  1
 O  O7  1  0.45665  0.30218  0.82681  1
 O  O8  1  0.04335  0.80218  0.17319  1
 O  O9  1  0.67629  0.91664  0.55626  1
 O  O10  1  0.07985  0.33505  0.70773  1
 O  O11  1  0.82371  0.41664  0.44374  1
 O  O12  1  0.29591  0.53887  0.10350  1
 O  O13  1  0.57985  0.16495  0.29227  1
 O  O14  1  0.95665  0.19782  0.17319  1
 O  O15  1  0.54335  0.69782  0.82681  1
 O  O16  1  0.92015  0.66495  0.70773  1
 Si  Si1  1  0.26312  0.19650  0.73938  1
 Si  Si2  1  0.76312  0.30350  0.26062  1
 Si  Si3  1  0.23688  0.69650  0.26062  1
 Si  Si4  1  0.73688  0.80350  0.73938  1
