CIF file written using JARVIS-Tools package.
data_AgSbO3
_symmetry_space_group_name_H-M  'R-3'
_cell_length_a       6.36014
_cell_length_b       6.3601
_cell_length_c       6.36034
_cell_angle_alpha    50.4918
_cell_angle_beta     50.4907
_cell_angle_gamma    50.4921

_symmetry_Int_Tables_number  148
_chemical_formula_structural  AgSbO3
_chemical_formula_sum  Ag2Sb2O6
_cell_volume  141.09898028217154
_cell_formula_units_Z  2
loop_
  _symmetry_equiv_pos_site_id
 _symmetry_equiv_pos_as_xyz
 1  'x, y, z'
loop_
 _atom_site_type_symbol
 _atom_site_label
 _atom_site_symmetry_multiplicity
 _atom_site_fract_x
 _atom_site_fract_y
 _atom_site_fract_z
 _atom_site_fract_occupancy
 Ag  Ag1  1  0.36418  0.36418  0.36419  1
 Ag  Ag2  1  0.63582  0.63582  0.63581  1
 O  O1  1  0.81273  0.43910  0.04309  1
 O  O2  1  0.56089  0.95692  0.18726  1
 O  O3  1  0.95692  0.18727  0.56089  1
 O  O4  1  0.04308  0.81273  0.43911  1
 O  O5  1  0.43911  0.04308  0.81274  1
 O  O6  1  0.18727  0.56089  0.95691  1
 Sb  Sb1  1  0.16237  0.16237  0.16237  1
 Sb  Sb2  1  0.83764  0.83763  0.83763  1
