CIF file written using JARVIS-Tools package.
data_Pd16S7
_symmetry_space_group_name_H-M  'I-43m'
_cell_length_a       7.83602
_cell_length_b       7.83603
_cell_length_c       7.83602
_cell_angle_alpha    109.471
_cell_angle_beta     109.471
_cell_angle_gamma    109.471

_symmetry_Int_Tables_number  217
_chemical_formula_structural  Pd16S7
_chemical_formula_sum  Pd6S7
_cell_volume  370.3950255182781
_cell_formula_units_Z  1
loop_
  _symmetry_equiv_pos_site_id
 _symmetry_equiv_pos_as_xyz
 1  'x, y, z'
loop_
 _atom_site_type_symbol
 _atom_site_label
 _atom_site_symmetry_multiplicity
 _atom_site_fract_x
 _atom_site_fract_y
 _atom_site_fract_z
 _atom_site_fract_occupancy
 Pd  Pd1  1  0.75236  0.75236  0.33750  1
 Pd  Pd2  1  0.41486  0.66250  0.41486  1
 Pd  Pd3  1  0.58514  -0.00000  0.24764  1
 Pd  Pd4  1  -0.00000  0.58514  0.24764  1
 Pd  Pd5  1  0.66250  0.41486  0.41486  1
 Pd  Pd6  1  0.58514  0.24764  -0.00000  1
 Pd  Pd7  1  0.76777  0.76777  0.76777  1
 Pd  Pd8  1  0.23223  0.00000  0.00000  1
 Pd  Pd9  1  0.41486  0.41486  0.66250  1
 Pd  Pd10  1  -0.00000  -0.00000  0.23223  1
 Pd  Pd11  1  0.24764  0.00000  0.58514  1
 Pd  Pd12  1  0.75236  0.33750  0.75236  1
 Pd  Pd13  1  0.33750  0.75236  0.75236  1
 Pd  Pd14  1  0.00000  0.24764  0.58514  1
 Pd  Pd15  1  0.24764  0.58514  -0.00000  1
 Pd  Pd16  1  0.00000  0.23223  0.00000  1
 S  S1  1  0.50000  0.00000  0.50000  1
 S  S2  1  0.31208  0.31208  0.31208  1
 S  S3  1  0.68792  -0.00000  -0.00000  1
 S  S4  1  -0.00000  0.68792  -0.00000  1
 S  S5  1  0.00000  0.00000  0.68792  1
 S  S6  1  0.00000  0.50000  0.50000  1
 S  S7  1  0.50000  0.50000  0.00000  1
