CIF file written using JARVIS-Tools package.
data_CaCd2
_symmetry_space_group_name_H-M  'Imma'
_cell_length_a       4.96917
_cell_length_b       6.14436
_cell_length_c       6.14436
_cell_angle_alpha    72.2693
_cell_angle_beta     66.1484
_cell_angle_gamma    66.1485

_symmetry_Int_Tables_number  74
_chemical_formula_structural  CaCd2
_chemical_formula_sum  Ca2Cd4
_cell_volume  154.67985027552777
_cell_formula_units_Z  2
loop_
  _symmetry_equiv_pos_site_id
 _symmetry_equiv_pos_as_xyz
 1  'x, y, z'
loop_
 _atom_site_type_symbol
 _atom_site_label
 _atom_site_symmetry_multiplicity
 _atom_site_fract_x
 _atom_site_fract_y
 _atom_site_fract_z
 _atom_site_fract_occupancy
 Ca  Ca1  1  0.47848  0.27152  0.77152  1
 Ca  Ca2  1  0.52152  0.72848  0.22848  1
 Cd  Cd1  1  0.83404  0.14064  0.19128  1
 Cd  Cd2  1  0.16596  0.85936  0.80872  1
 Cd  Cd3  1  0.16596  0.30872  0.35936  1
 Cd  Cd4  1  0.83404  0.69128  0.64064  1
