CIF file written using JARVIS-Tools package.
data_Rb2TlAu3
_symmetry_space_group_name_H-M  'Pmma'
_cell_length_a       5.76416
_cell_length_b       6.85307
_cell_length_c       9.12037
_cell_angle_alpha    90
_cell_angle_beta     90
_cell_angle_gamma    90

_symmetry_Int_Tables_number  51
_chemical_formula_structural  Rb2TlAu3
_chemical_formula_sum  Rb4Tl2Au6
_cell_volume  360.27434536015244
_cell_formula_units_Z  2
loop_
  _symmetry_equiv_pos_site_id
 _symmetry_equiv_pos_as_xyz
 1  'x, y, z'
loop_
 _atom_site_type_symbol
 _atom_site_label
 _atom_site_symmetry_multiplicity
 _atom_site_fract_x
 _atom_site_fract_y
 _atom_site_fract_z
 _atom_site_fract_occupancy
 Au  Au1  1  0.00000  0.00000  0.00000  1
 Au  Au2  1  0.50000  0.00000  0.00000  1
 Au  Au3  1  0.75000  0.21125  0.21712  1
 Au  Au4  1  0.75000  0.78875  0.21712  1
 Au  Au5  1  0.25000  0.21125  0.78288  1
 Au  Au6  1  0.25000  0.78875  0.78288  1
 Rb  Rb1  1  0.25000  0.50000  0.12996  1
 Rb  Rb2  1  0.25000  0.00000  0.36963  1
 Rb  Rb3  1  0.75000  0.00000  0.63037  1
 Rb  Rb4  1  0.75000  0.50000  0.87004  1
 Tl  Tl1  1  0.75000  0.50000  0.43324  1
 Tl  Tl2  1  0.25000  0.50000  0.56676  1
