CIF file written using JARVIS-Tools package.
data_Ho5Ni2Sb
_symmetry_space_group_name_H-M  'I4/mcm'
_cell_length_a       7.58935
_cell_length_b       7.58935
_cell_length_c       8.46991
_cell_angle_alpha    116.617
_cell_angle_beta     116.617
_cell_angle_gamma    90

_symmetry_Int_Tables_number  140
_chemical_formula_structural  Ho5Ni2Sb
_chemical_formula_sum  Ho0Ni4Sb2
_cell_volume  377.43448163569576
_cell_formula_units_Z  2
loop_
  _symmetry_equiv_pos_site_id
 _symmetry_equiv_pos_as_xyz
 1  'x, y, z'
loop_
 _atom_site_type_symbol
 _atom_site_label
 _atom_site_symmetry_multiplicity
 _atom_site_fract_x
 _atom_site_fract_y
 _atom_site_fract_z
 _atom_site_fract_occupancy
 Ho  Ho1  1  0.20733  0.01877  0.72610  1
 Ho  Ho2  1  0.01877  0.51877  0.72610  1
 Ho  Ho3  1  0.70733  0.20733  0.72610  1
 Ho  Ho4  1  0.98123  0.48123  0.27390  1
 Ho  Ho5  1  0.51877  0.70733  0.72610  1
 Ho  Ho6  1  0.79267  0.98123  0.27390  1
 Ho  Ho7  1  0.48123  0.29267  0.27390  1
 Ho  Ho8  1  0.29267  0.79267  0.27390  1
 Ho  Ho9  1  0.50000  0.50000  0.00000  1
 Ho  Ho10  1  0.00000  0.00000  0.00000  1
 Ni  Ni1  1  0.36643  0.86643  -0.00000  1
 Ni  Ni2  1  0.13357  0.36643  -0.00000  1
 Ni  Ni3  1  0.63357  0.13357  0.00000  1
 Ni  Ni4  1  0.86643  0.63357  0.00000  1
 Sb  Sb1  1  0.25000  0.25000  0.50000  1
 Sb  Sb2  1  0.75000  0.75000  0.50000  1
