CIF file written using JARVIS-Tools package.
data_Ba6Hf5S16
_symmetry_space_group_name_H-M  'I4/mmm'
_cell_length_a       4.98558
_cell_length_b       4.98557
_cell_length_c       28.0196
_cell_angle_alpha    95.105
_cell_angle_beta     95.105
_cell_angle_gamma    90.0003

_symmetry_Int_Tables_number  139
_chemical_formula_structural  Ba6Hf5S16
_chemical_formula_sum  Ba6Hf5S6
_cell_volume  690.9169322414523
_cell_formula_units_Z  1
loop_
  _symmetry_equiv_pos_site_id
 _symmetry_equiv_pos_as_xyz
 1  'x, y, z'
loop_
 _atom_site_type_symbol
 _atom_site_label
 _atom_site_symmetry_multiplicity
 _atom_site_fract_x
 _atom_site_fract_y
 _atom_site_fract_z
 _atom_site_fract_occupancy
 Ba  Ba1  1  0.71791  0.71791  0.43584  1
 Ba  Ba2  1  0.36731  0.36731  0.73464  1
 Ba  Ba3  1  0.54443  0.54443  0.08890  1
 Ba  Ba4  1  0.63269  0.63269  0.26536  1
 Ba  Ba5  1  0.45557  0.45557  0.91110  1
 Ba  Ba6  1  0.28209  0.28209  0.56416  1
 Hf  Hf1  1  0.90978  0.90978  0.81952  1
 Hf  Hf2  1  0.00000  0.00000  0.00000  1
 Hf  Hf3  1  0.81880  0.81880  0.63760  1
 Hf  Hf4  1  0.18120  0.18120  0.36240  1
 Hf  Hf5  1  0.09022  0.09022  0.18048  1
 S  S1  1  0.77399  0.77399  0.54809  1
 S  S2  1  0.95505  0.95505  0.91009  1
 S  S3  1  0.04495  0.04495  0.08991  1
 S  S4  1  0.41041  0.91041  0.82081  1
 S  S5  1  0.91041  0.41041  0.82081  1
 S  S6  1  0.32131  0.82134  0.64262  1
 S  S7  1  0.67869  0.17866  0.35738  1
 S  S8  1  0.22601  0.22601  0.45191  1
 S  S9  1  0.58959  0.08959  0.17919  1
 S  S10  1  0.13495  0.13495  0.26983  1
 S  S11  1  0.86505  0.86505  0.73017  1
 S  S12  1  0.17866  0.67869  0.35738  1
 S  S13  1  0.08959  0.58959  0.17919  1
 S  S14  1  -0.00000  0.50000  -0.00000  1
 S  S15  1  0.82134  0.32131  0.64262  1
 S  S16  1  0.50000  0.00000  -0.00000  1
