CIF file written using JARVIS-Tools package.
data_Ca3MnZnO6
_symmetry_space_group_name_H-M  'R-3c'
_cell_length_a       6.36555
_cell_length_b       6.36554
_cell_length_c       6.36555
_cell_angle_alpha    91.772
_cell_angle_beta     91.772
_cell_angle_gamma    91.772

_symmetry_Int_Tables_number  167
_chemical_formula_structural  Ca3MnZnO6
_chemical_formula_sum  Ca6Mn2Zn2O2
_cell_volume  257.5547471567613
_cell_formula_units_Z  2
loop_
  _symmetry_equiv_pos_site_id
 _symmetry_equiv_pos_as_xyz
 1  'x, y, z'
loop_
 _atom_site_type_symbol
 _atom_site_label
 _atom_site_symmetry_multiplicity
 _atom_site_fract_x
 _atom_site_fract_y
 _atom_site_fract_z
 _atom_site_fract_occupancy
 Ca  Ca1  1  0.25000  0.61348  0.88652  1
 Ca  Ca2  1  0.88652  0.25000  0.61348  1
 Ca  Ca3  1  0.38652  0.11348  0.75000  1
 Ca  Ca4  1  0.75000  0.38652  0.11348  1
 Ca  Ca5  1  0.11348  0.75000  0.38652  1
 Ca  Ca6  1  0.61348  0.88652  0.25000  1
 Mn  Mn1  1  0.00000  0.00000  0.00000  1
 Mn  Mn2  1  0.50000  0.50000  0.50000  1
 O  O1  1  0.78695  0.58215  0.45247  1
 O  O2  1  0.58215  0.45247  0.78695  1
 O  O3  1  0.45247  0.78695  0.58215  1
 O  O4  1  0.04753  0.91785  0.71305  1
 O  O5  1  0.91785  0.71305  0.04753  1
 O  O6  1  0.28695  0.95247  0.08215  1
 O  O7  1  0.71305  0.04753  0.91785  1
 O  O8  1  0.95247  0.08215  0.28695  1
 O  O9  1  0.21305  0.41785  0.54753  1
 O  O10  1  0.54753  0.21305  0.41785  1
 O  O11  1  0.08215  0.28695  0.95247  1
 O  O12  1  0.41785  0.54753  0.21305  1
 Zn  Zn1  1  0.75000  0.75000  0.75000  1
 Zn  Zn2  1  0.25000  0.25000  0.25000  1
