CIF file written using JARVIS-Tools package.
data_V2O3F
_symmetry_space_group_name_H-M  'C2/m'
_cell_length_a       4.60992
_cell_length_b       5.49323
_cell_length_c       5.49323
_cell_angle_alpha    115.923
_cell_angle_beta     91.8214
_cell_angle_gamma    88.1786

_symmetry_Int_Tables_number  12
_chemical_formula_structural  V2O3F
_chemical_formula_sum  V4O6F2
_cell_volume  125.0223438057956
_cell_formula_units_Z  2
loop_
  _symmetry_equiv_pos_site_id
 _symmetry_equiv_pos_as_xyz
 1  'x, y, z'
loop_
 _atom_site_type_symbol
 _atom_site_label
 _atom_site_symmetry_multiplicity
 _atom_site_fract_x
 _atom_site_fract_y
 _atom_site_fract_z
 _atom_site_fract_occupancy
 F  F1  1  0.78807  0.65186  0.84814  1
 F  F2  1  0.21193  0.34814  0.15186  1
 O  O1  1  0.80029  0.15329  0.34671  1
 O  O2  1  0.70509  0.15546  0.85155  1
 O  O3  1  0.70509  0.64845  0.34454  1
 O  O4  1  0.29491  0.84454  0.14845  1
 O  O5  1  0.29491  0.35155  0.65546  1
 O  O6  1  0.19971  0.84671  0.65329  1
 V  V1  1  0.50000  0.00000  0.50000  1
 V  V2  1  0.50000  0.50000  -0.00000  1
 V  V3  1  0.00000  0.50000  0.50000  1
 V  V4  1  0.00000  0.00000  0.00000  1
