CIF file written using JARVIS-Tools package.
data_TbCu2
_symmetry_space_group_name_H-M  'Imma'
_cell_length_a       4.2806
_cell_length_b       5.46142
_cell_length_c       5.46141
_cell_angle_alpha    77.4444
_cell_angle_beta     66.9276
_cell_angle_gamma    66.9275

_symmetry_Int_Tables_number  74
_chemical_formula_structural  TbCu2
_chemical_formula_sum  Tb2Cu4
_cell_volume  107.7614321537812
_cell_formula_units_Z  2
loop_
  _symmetry_equiv_pos_site_id
 _symmetry_equiv_pos_as_xyz
 1  'x, y, z'
loop_
 _atom_site_type_symbol
 _atom_site_label
 _atom_site_symmetry_multiplicity
 _atom_site_fract_x
 _atom_site_fract_y
 _atom_site_fract_z
 _atom_site_fract_occupancy
 Cu  Cu1  1  0.83501  0.71059  0.61939  1
 Cu  Cu2  1  0.16499  0.28941  0.38061  1
 Cu  Cu3  1  0.83501  0.11939  0.21059  1
 Cu  Cu4  1  0.16499  0.88061  0.78941  1
 Tb  Tb1  1  0.53937  0.71063  0.21063  1
 Tb  Tb2  1  0.46063  0.28937  0.78937  1
