CIF file written using JARVIS-Tools package.
data_LuGePt
_symmetry_space_group_name_H-M  'Pnma'
_cell_length_a       4.32237
_cell_length_b       6.86365
_cell_length_c       7.58158
_cell_angle_alpha    90
_cell_angle_beta     90
_cell_angle_gamma    90

_symmetry_Int_Tables_number  62
_chemical_formula_structural  LuGePt
_chemical_formula_sum  Lu4Ge4Pt4
_cell_volume  224.9243151173302
_cell_formula_units_Z  4
loop_
  _symmetry_equiv_pos_site_id
 _symmetry_equiv_pos_as_xyz
 1  'x, y, z'
loop_
 _atom_site_type_symbol
 _atom_site_label
 _atom_site_symmetry_multiplicity
 _atom_site_fract_x
 _atom_site_fract_y
 _atom_site_fract_z
 _atom_site_fract_occupancy
 Ge  Ge1  1  0.25000  0.69012  0.59018  1
 Ge  Ge2  1  0.25000  0.19012  0.90982  1
 Ge  Ge3  1  0.75000  0.30988  0.40982  1
 Ge  Ge4  1  0.75000  0.80988  0.09018  1
 Lu  Lu1  1  0.75000  0.49747  0.79712  1
 Lu  Lu2  1  0.25000  0.00253  0.29712  1
 Lu  Lu3  1  0.75000  0.99747  0.70288  1
 Lu  Lu4  1  0.25000  0.50253  0.20288  1
 Pt  Pt1  1  0.25000  0.79054  0.91603  1
 Pt  Pt2  1  0.25000  0.29054  0.58397  1
 Pt  Pt3  1  0.75000  0.70946  0.41603  1
 Pt  Pt4  1  0.75000  0.20946  0.08397  1
