CIF file written using JARVIS-Tools package.
data_Nb3Te4
_symmetry_space_group_name_H-M  'P6_3/m'
_cell_length_a       10.8208
_cell_length_b       10.8208
_cell_length_c       3.67186
_cell_angle_alpha    90
_cell_angle_beta     90
_cell_angle_gamma    120

_symmetry_Int_Tables_number  176
_chemical_formula_structural  Nb3Te4
_chemical_formula_sum  Nb6Te8
_cell_volume  372.33472429163317
_cell_formula_units_Z  2
loop_
  _symmetry_equiv_pos_site_id
 _symmetry_equiv_pos_as_xyz
 1  'x, y, z'
loop_
 _atom_site_type_symbol
 _atom_site_label
 _atom_site_symmetry_multiplicity
 _atom_site_fract_x
 _atom_site_fract_y
 _atom_site_fract_z
 _atom_site_fract_occupancy
 Nb  Nb1  1  0.89863  0.38747  0.25000  1
 Nb  Nb2  1  0.51116  0.89863  0.75000  1
 Nb  Nb3  1  0.38747  0.48884  0.75000  1
 Nb  Nb4  1  0.61253  0.51116  0.25000  1
 Nb  Nb5  1  0.48884  0.10137  0.25000  1
 Nb  Nb6  1  0.10137  0.61253  0.75000  1
 Te  Te1  1  0.66667  0.33333  0.75000  1
 Te  Te2  1  0.33333  0.66667  0.25000  1
 Te  Te3  1  0.72880  0.06472  0.25000  1
 Te  Te4  1  0.66408  0.72880  0.75000  1
 Te  Te5  1  0.06472  0.33592  0.75000  1
 Te  Te6  1  0.93528  0.66408  0.25000  1
 Te  Te7  1  0.33592  0.27120  0.25000  1
 Te  Te8  1  0.27120  0.93528  0.75000  1
