CIF file written using JARVIS-Tools package.
data_Fe4C
_symmetry_space_group_name_H-M  'P-43m'
_cell_length_a       3.82147
_cell_length_b       3.82147
_cell_length_c       3.82147
_cell_angle_alpha    90
_cell_angle_beta     90
_cell_angle_gamma    90

_symmetry_Int_Tables_number  215
_chemical_formula_structural  Fe4C
_chemical_formula_sum  Fe4C
_cell_volume  55.807423548035
_cell_formula_units_Z  1
loop_
  _symmetry_equiv_pos_site_id
 _symmetry_equiv_pos_as_xyz
 1  'x, y, z'
loop_
 _atom_site_type_symbol
 _atom_site_label
 _atom_site_symmetry_multiplicity
 _atom_site_fract_x
 _atom_site_fract_y
 _atom_site_fract_z
 _atom_site_fract_occupancy
 C  C1  1  0.00000  0.00000  0.00000  1
 Fe  Fe1  1  0.27063  0.27063  0.27063  1
 Fe  Fe2  1  0.72937  0.27063  0.72937  1
 Fe  Fe3  1  0.72937  0.72937  0.27063  1
 Fe  Fe4  1  0.27063  0.72937  0.72937  1
