CIF file written using JARVIS-Tools package.
data_Li7Co5O12
_symmetry_space_group_name_H-M  'C2'
_cell_length_a       4.87012
_cell_length_b       4.87012
_cell_length_c       9.2427
_cell_angle_alpha    85.8205
_cell_angle_beta     94.1795
_cell_angle_gamma    62.1444

_symmetry_Int_Tables_number  5
_chemical_formula_structural  Li7Co5O12
_chemical_formula_sum  Li7Co5O2
_cell_volume  191.8757328018886
_cell_formula_units_Z  1
loop_
  _symmetry_equiv_pos_site_id
 _symmetry_equiv_pos_as_xyz
 1  'x, y, z'
loop_
 _atom_site_type_symbol
 _atom_site_label
 _atom_site_symmetry_multiplicity
 _atom_site_fract_x
 _atom_site_fract_y
 _atom_site_fract_z
 _atom_site_fract_occupancy
 Co  Co1  1  -0.00707  0.51065  0.99565  1
 Co  Co2  1  0.08287  0.08287  0.25000  1
 Co  Co3  1  0.57894  0.57894  0.75000  1
 Co  Co4  1  0.51065  -0.00707  0.50435  1
 Co  Co5  1  0.42254  0.42254  0.25000  1
 Li  Li1  1  0.91645  0.91645  0.75000  1
 Li  Li2  1  0.25126  0.25126  0.75000  1
 Li  Li3  1  0.85048  0.30993  0.51151  1
 Li  Li4  1  0.64706  0.18170  0.99011  1
 Li  Li5  1  0.30993  0.85048  0.98849  1
 Li  Li6  1  0.18170  0.64706  0.50989  1
 Li  Li7  1  0.75278  0.75278  0.25000  1
 O  O1  1  0.64539  0.83014  0.87949  1
 O  O2  1  0.74326  0.42887  0.13571  1
 O  O3  1  0.42887  0.74326  0.36429  1
 O  O4  1  0.54554  0.28123  0.62468  1
 O  O5  1  0.28123  0.54554  0.87532  1
 O  O6  1  0.16817  0.33686  0.37385  1
 O  O7  1  0.25262  0.92972  0.62793  1
 O  O8  1  0.92972  0.25262  0.87207  1
 O  O9  1  0.76628  0.07431  0.36475  1
 O  O10  1  0.83014  0.64539  0.62051  1
 O  O11  1  0.33686  0.16817  0.12615  1
 O  O12  1  0.07431  0.76628  0.13525  1
