CIF file written using JARVIS-Tools package.
data_Yb2Ni12P7
_symmetry_space_group_name_H-M  'P-6'
_cell_length_a       9.06858
_cell_length_b       9.06858
_cell_length_c       3.67561
_cell_angle_alpha    90
_cell_angle_beta     90
_cell_angle_gamma    120

_symmetry_Int_Tables_number  174
_chemical_formula_structural  Yb2Ni12P7
_chemical_formula_sum  Yb2Ni2P7
_cell_volume  261.781434567851
_cell_formula_units_Z  1
loop_
  _symmetry_equiv_pos_site_id
 _symmetry_equiv_pos_as_xyz
 1  'x, y, z'
loop_
 _atom_site_type_symbol
 _atom_site_label
 _atom_site_symmetry_multiplicity
 _atom_site_fract_x
 _atom_site_fract_y
 _atom_site_fract_z
 _atom_site_fract_occupancy
 Ni  Ni1  1  0.62638  0.56422  0.00000  1
 Ni  Ni2  1  0.87734  0.78078  0.50000  1
 Ni  Ni3  1  0.21922  0.09657  0.50000  1
 Ni  Ni4  1  0.90343  0.12266  0.50000  1
 Ni  Ni5  1  0.38011  0.43245  0.50000  1
 Ni  Ni6  1  0.56755  0.94766  0.50000  1
 Ni  Ni7  1  0.05234  0.61989  0.50000  1
 Ni  Ni8  1  0.15293  0.27573  0.00000  1
 Ni  Ni9  1  0.72427  0.87720  0.00000  1
 Ni  Ni10  1  0.43578  0.06216  0.00000  1
 Ni  Ni11  1  0.93784  0.37362  0.00000  1
 Ni  Ni12  1  0.12280  0.84707  0.00000  1
 P  P1  1  0.59494  0.70419  0.50000  1
 P  P2  1  0.88683  0.59156  0.00000  1
 P  P3  1  0.40844  0.29527  0.00000  1
 P  P4  1  0.00000  0.00000  0.00000  1
 P  P5  1  0.29581  0.89075  0.50000  1
 P  P6  1  0.10925  0.40506  0.50000  1
 P  P7  1  0.70473  0.11317  0.00000  1
 Yb  Yb1  1  0.66667  0.33333  0.50000  1
 Yb  Yb2  1  0.33333  0.66667  0.00000  1
