CIF file written using JARVIS-Tools package.
data_Li3Al2VO6
_symmetry_space_group_name_H-M  'C2/m'
_cell_length_a       4.98003
_cell_length_b       4.98003
_cell_length_c       5.04083
_cell_angle_alpha    80.4844
_cell_angle_beta     99.5156
_cell_angle_gamma    60.0254

_symmetry_Int_Tables_number  12
_chemical_formula_structural  Li3Al2VO6
_chemical_formula_sum  Li3Al2VO6
_cell_volume  102.208981386063
_cell_formula_units_Z  1
loop_
  _symmetry_equiv_pos_site_id
 _symmetry_equiv_pos_as_xyz
 1  'x, y, z'
loop_
 _atom_site_type_symbol
 _atom_site_label
 _atom_site_symmetry_multiplicity
 _atom_site_fract_x
 _atom_site_fract_y
 _atom_site_fract_z
 _atom_site_fract_occupancy
 Al  Al1  1  0.33347  0.33347  0.00000  1
 Al  Al2  1  0.66653  0.66653  -0.00000  1
 Li  Li1  1  0.16795  0.16795  0.50000  1
 Li  Li2  1  0.50000  0.50000  0.50000  1
 Li  Li3  1  0.83205  0.83205  0.50000  1
 O  O1  1  0.27399  0.72601  0.77880  1
 O  O2  1  0.42068  0.92655  0.21927  1
 O  O3  1  0.07345  0.57932  0.21927  1
 O  O4  1  0.92655  0.42068  0.78073  1
 O  O5  1  0.57932  0.07345  0.78073  1
 O  O6  1  0.72601  0.27399  0.22120  1
 V  V1  1  0.00000  0.00000  0.00000  1
