CIF file written using JARVIS-Tools package.
data_Ca5Si2N6
_symmetry_space_group_name_H-M  'C2/c'
_cell_length_a       5.76967
_cell_length_b       5.76967
_cell_length_c       12.7576
_cell_angle_alpha    81.2933
_cell_angle_beta     81.2933
_cell_angle_gamma    63.0136

_symmetry_Int_Tables_number  15
_chemical_formula_structural  Ca5Si2N6
_chemical_formula_sum  Ca0Si4N2
_cell_volume  372.4350126340132
_cell_formula_units_Z  2
loop_
  _symmetry_equiv_pos_site_id
 _symmetry_equiv_pos_as_xyz
 1  'x, y, z'
loop_
 _atom_site_type_symbol
 _atom_site_label
 _atom_site_symmetry_multiplicity
 _atom_site_fract_x
 _atom_site_fract_y
 _atom_site_fract_z
 _atom_site_fract_occupancy
 Ca  Ca1  1  0.80527  0.32532  0.00083  1
 Ca  Ca2  1  0.93266  0.76076  0.71605  1
 Ca  Ca3  1  0.19473  0.67468  0.99917  1
 Ca  Ca4  1  0.06734  0.23924  0.28395  1
 Ca  Ca5  1  0.32532  0.80527  0.50083  1
 Ca  Ca6  1  0.76076  0.93266  0.21605  1
 Ca  Ca7  1  0.61834  0.38166  0.75000  1
 Ca  Ca8  1  0.23924  0.06734  0.78395  1
 Ca  Ca9  1  0.38166  0.61834  0.25000  1
 Ca  Ca10  1  0.67468  0.19473  0.49917  1
 N  N1  1  0.10085  0.01458  0.12755  1
 N  N2  1  0.34259  0.20856  0.93762  1
 N  N3  1  0.61005  0.69167  0.85192  1
 N  N4  1  0.89915  0.98542  0.87245  1
 N  N5  1  0.20856  0.34259  0.43762  1
 N  N6  1  0.30833  0.38995  0.64808  1
 N  N7  1  0.79144  0.65741  0.56238  1
 N  N8  1  0.38995  0.30833  0.14808  1
 N  N9  1  0.69167  0.61005  0.35192  1
 N  N10  1  0.65741  0.79144  0.06238  1
 N  N11  1  0.98542  0.89915  0.37245  1
 N  N12  1  0.01458  0.10085  0.62755  1
 Si  Si1  1  0.09368  0.35240  0.57634  1
 Si  Si2  1  0.90632  0.64760  0.42366  1
 Si  Si3  1  0.64760  0.90632  0.92366  1
 Si  Si4  1  0.35240  0.09368  0.07634  1
