CIF file written using JARVIS-Tools package.
data_NaSm3SiS7
_symmetry_space_group_name_H-M  'P6_3'
_cell_length_a       10.1315
_cell_length_b       10.1315
_cell_length_c       5.74658
_cell_angle_alpha    90
_cell_angle_beta     90
_cell_angle_gamma    120

_symmetry_Int_Tables_number  173
_chemical_formula_structural  NaSm3SiS7
_chemical_formula_sum  Na2Sm6Si2S4
_cell_volume  510.83882814931474
_cell_formula_units_Z  2
loop_
  _symmetry_equiv_pos_site_id
 _symmetry_equiv_pos_as_xyz
 1  'x, y, z'
loop_
 _atom_site_type_symbol
 _atom_site_label
 _atom_site_symmetry_multiplicity
 _atom_site_fract_x
 _atom_site_fract_y
 _atom_site_fract_z
 _atom_site_fract_occupancy
 Na  Na1  1  0.00000  0.00000  0.98038  1
 Na  Na2  1  0.00000  0.00000  0.48038  1
 S  S1  1  0.25982  0.16865  0.72882  1
 S  S2  1  0.41159  0.52234  0.48333  1
 S  S3  1  0.09116  0.25982  0.22882  1
 S  S4  1  0.74018  0.83135  0.22882  1
 S  S5  1  0.11076  0.58841  0.48333  1
 S  S6  1  0.83135  0.09116  0.72882  1
 S  S7  1  0.66667  0.33333  0.46715  1
 S  S8  1  0.33333  0.66667  0.96715  1
 S  S9  1  0.52234  0.11076  0.98333  1
 S  S10  1  0.58841  0.47766  0.98333  1
 S  S11  1  0.88924  0.41159  0.98333  1
 S  S12  1  0.47766  0.88924  0.48333  1
 S  S13  1  0.90884  0.74018  0.72882  1
 S  S14  1  0.16865  0.90884  0.22882  1
 Si  Si1  1  0.66667  0.33333  0.83536  1
 Si  Si2  1  0.33333  0.66667  0.33536  1
 Sm  Sm1  1  0.63883  0.76549  0.74962  1
 Sm  Sm2  1  0.12667  0.36117  0.74962  1
 Sm  Sm3  1  0.76549  0.12667  0.24962  1
 Sm  Sm4  1  0.87333  0.63883  0.24962  1
 Sm  Sm5  1  0.23451  0.87333  0.74962  1
 Sm  Sm6  1  0.36117  0.23451  0.24962  1
