CIF file written using JARVIS-Tools package.
data_ZnMo2O4
_symmetry_space_group_name_H-M  'Fd-3m'
_cell_length_a       6.06992
_cell_length_b       6.06992
_cell_length_c       6.07063
_cell_angle_alpha    119.996
_cell_angle_beta     119.996
_cell_angle_gamma    90

_symmetry_Int_Tables_number  227
_chemical_formula_structural  ZnMo2O4
_chemical_formula_sum  Zn2Mo4O8
_cell_volume  158.17457853954838
_cell_formula_units_Z  2
loop_
  _symmetry_equiv_pos_site_id
 _symmetry_equiv_pos_as_xyz
 1  'x, y, z'
loop_
 _atom_site_type_symbol
 _atom_site_label
 _atom_site_symmetry_multiplicity
 _atom_site_fract_x
 _atom_site_fract_y
 _atom_site_fract_z
 _atom_site_fract_occupancy
 Mo  Mo1  1  0.00000  -0.00000  0.50000  1
 Mo  Mo2  1  -0.00000  0.50000  0.00000  1
 Mo  Mo3  1  0.50000  -0.00000  0.50000  1
 Mo  Mo4  1  0.00000  0.00000  0.00000  1
 O  O1  1  0.75275  0.75807  0.50550  1
 O  O2  1  0.75257  0.24725  0.99450  1
 O  O3  1  0.24193  0.24725  0.99450  1
 O  O4  1  0.24725  0.24193  0.49450  1
 O  O5  1  0.24725  0.75257  0.49450  1
 O  O6  1  0.24743  0.75275  0.00550  1
 O  O7  1  0.75275  0.24743  0.50550  1
 O  O8  1  0.75807  0.75275  0.00550  1
 Zn  Zn1  1  0.37500  0.62500  0.75000  1
 Zn  Zn2  1  0.62500  0.37500  0.25000  1
