CIF file written using JARVIS-Tools package.
data_Tm2AlSi2
_symmetry_space_group_name_H-M  'Immm'
_cell_length_a       4.0426
_cell_length_b       5.52355
_cell_length_c       5.52355
_cell_angle_alpha    62.4435
_cell_angle_beta     68.5345
_cell_angle_gamma    68.5345

_symmetry_Int_Tables_number  71
_chemical_formula_structural  Tm2AlSi2
_chemical_formula_sum  Tm2AlSi2
_cell_volume  98.82910720987147
_cell_formula_units_Z  1
loop_
  _symmetry_equiv_pos_site_id
 _symmetry_equiv_pos_as_xyz
 1  'x, y, z'
loop_
 _atom_site_type_symbol
 _atom_site_label
 _atom_site_symmetry_multiplicity
 _atom_site_fract_x
 _atom_site_fract_y
 _atom_site_fract_z
 _atom_site_fract_occupancy
 Al  Al1  1  0.00000  0.00000  0.00000  1
 Si  Si1  1  0.50000  0.28995  0.71005  1
 Si  Si2  1  0.50000  0.71005  0.28995  1
 Tm  Tm1  1  0.78828  0.71172  0.71172  1
 Tm  Tm2  1  0.21172  0.28828  0.28828  1
