CIF file written using JARVIS-Tools package.
data_BeAu2
_symmetry_space_group_name_H-M  'I4/mmm'
_cell_length_a       2.91223
_cell_length_b       2.91223
_cell_length_c       5.57268
_cell_angle_alpha    105.147
_cell_angle_beta     105.147
_cell_angle_gamma    90

_symmetry_Int_Tables_number  139
_chemical_formula_structural  BeAu2
_chemical_formula_sum  BeAu2
_cell_volume  43.9171536416254
_cell_formula_units_Z  1
loop_
  _symmetry_equiv_pos_site_id
 _symmetry_equiv_pos_as_xyz
 1  'x, y, z'
loop_
 _atom_site_type_symbol
 _atom_site_label
 _atom_site_symmetry_multiplicity
 _atom_site_fract_x
 _atom_site_fract_y
 _atom_site_fract_z
 _atom_site_fract_occupancy
 Au  Au1  1  0.35909  0.35909  0.71819  1
 Au  Au2  1  0.64091  0.64091  0.28181  1
 Be  Be1  1  0.00000  0.00000  0.00000  1
