CIF file written using JARVIS-Tools package.
data_Pd3S
_symmetry_space_group_name_H-M  'Cmcm'
_cell_length_a       4.59749
_cell_length_b       4.59749
_cell_length_c       6.39853
_cell_angle_alpha    90
_cell_angle_beta     90
_cell_angle_gamma    108.189

_symmetry_Int_Tables_number  63
_chemical_formula_structural  Pd3S
_chemical_formula_sum  Pd6S2
_cell_volume  128.4871763595682
_cell_formula_units_Z  2
loop_
  _symmetry_equiv_pos_site_id
 _symmetry_equiv_pos_as_xyz
 1  'x, y, z'
loop_
 _atom_site_type_symbol
 _atom_site_label
 _atom_site_symmetry_multiplicity
 _atom_site_fract_x
 _atom_site_fract_y
 _atom_site_fract_z
 _atom_site_fract_occupancy
 Pd  Pd1  1  0.14728  0.53849  0.75000  1
 Pd  Pd2  1  0.53575  0.15004  0.75000  1
 Pd  Pd3  1  0.99863  0.00137  0.00000  1
 Pd  Pd4  1  0.99863  0.00137  0.50000  1
 Pd  Pd5  1  0.46151  0.85272  0.25000  1
 Pd  Pd6  1  0.84996  0.46425  0.25000  1
 S  S1  1  0.30942  0.31218  0.25000  1
 S  S2  1  0.68782  0.69058  0.75000  1
