CIF file written using JARVIS-Tools package.
data_Pr3Sb5O12
_symmetry_space_group_name_H-M  'I-43m'
_cell_length_a       9.64315
_cell_length_b       9.64315
_cell_length_c       9.64315
_cell_angle_alpha    109.471
_cell_angle_beta     109.471
_cell_angle_gamma    109.471

_symmetry_Int_Tables_number  217
_chemical_formula_structural  Pr3Sb5O12
_chemical_formula_sum  Pr6Sb0O24
_cell_volume  690.2955330719227
_cell_formula_units_Z  2
loop_
  _symmetry_equiv_pos_site_id
 _symmetry_equiv_pos_as_xyz
 1  'x, y, z'
loop_
 _atom_site_type_symbol
 _atom_site_label
 _atom_site_symmetry_multiplicity
 _atom_site_fract_x
 _atom_site_fract_y
 _atom_site_fract_z
 _atom_site_fract_occupancy
 O  O1  1  -0.00000  0.48694  0.28949  1
 O  O2  1  0.47201  0.27532  0.47201  1
 O  O3  1  0.27532  0.47201  0.47201  1
 O  O4  1  -0.00000  0.52799  0.80331  1
 O  O5  1  0.52799  -0.00000  0.80331  1
 O  O6  1  0.80331  -0.00000  0.52799  1
 O  O7  1  0.19669  0.72468  0.19669  1
 O  O8  1  0.72468  0.19669  0.19669  1
 O  O9  1  0.48694  -0.00000  0.28949  1
 O  O10  1  0.71051  0.19744  0.71051  1
 O  O11  1  0.52799  0.80331  -0.00000  1
 O  O12  1  0.47201  0.47201  0.27532  1
 O  O13  1  0.19744  0.71051  0.71051  1
 O  O14  1  0.51306  0.51306  0.80256  1
 O  O15  1  0.51306  0.80256  0.51306  1
 O  O16  1  0.28949  0.00000  0.48694  1
 O  O17  1  0.80256  0.51306  0.51306  1
 O  O18  1  0.00000  0.80331  0.52799  1
 O  O19  1  0.19669  0.19669  0.72468  1
 O  O20  1  0.71051  0.71051  0.19744  1
 O  O21  1  0.00000  0.28949  0.48694  1
 O  O22  1  0.28949  0.48694  -0.00000  1
 O  O23  1  0.48694  0.28949  -0.00000  1
 O  O24  1  0.80331  0.52799  -0.00000  1
 Pr  Pr1  1  0.50000  0.75000  0.25000  1
 Pr  Pr2  1  0.25000  0.75000  0.50000  1
 Pr  Pr3  1  0.75000  0.50000  0.25000  1
 Pr  Pr4  1  0.25000  0.50000  0.75000  1
 Pr  Pr5  1  0.75000  0.25000  0.50000  1
 Pr  Pr6  1  0.50000  0.25000  0.75000  1
 Sb  Sb1  1  0.00000  0.72236  0.72236  1
 Sb  Sb2  1  0.72236  0.72236  0.00000  1
 Sb  Sb3  1  0.27764  0.27764  -0.00000  1
 Sb  Sb4  1  0.50828  0.50828  0.50828  1
 Sb  Sb5  1  0.49172  -0.00000  -0.00000  1
 Sb  Sb6  1  -0.00000  0.49172  -0.00000  1
 Sb  Sb7  1  0.00000  0.00000  0.49172  1
 Sb  Sb8  1  0.27764  -0.00000  0.27764  1
 Sb  Sb9  1  0.72236  0.00000  0.72236  1
 Sb  Sb10  1  -0.00000  0.27764  0.27764  1
