CIF file written using JARVIS-Tools package.
data_Te4Mo3WSe2S2
_symmetry_space_group_name_H-M  'P3m1'
_cell_length_a       3.40216
_cell_length_b       3.40206
_cell_length_c       37.3109
_cell_angle_alpha    89.9952
_cell_angle_beta     90
_cell_angle_gamma    120.001

_symmetry_Int_Tables_number  156
_chemical_formula_structural  Te4Mo3WSe2S2
_chemical_formula_sum  Te4Mo3WSe2S2
_cell_volume  373.9879543560075
_cell_formula_units_Z  1
loop_
  _symmetry_equiv_pos_site_id
 _symmetry_equiv_pos_as_xyz
 1  'x, y, z'
loop_
 _atom_site_type_symbol
 _atom_site_label
 _atom_site_symmetry_multiplicity
 _atom_site_fract_x
 _atom_site_fract_y
 _atom_site_fract_z
 _atom_site_fract_occupancy
 Mo  Mo1  1  0.33342  0.66685  0.09463  1
 Mo  Mo2  1  0.33325  0.66649  0.47495  1
 Mo  Mo3  1  0.66671  0.33341  0.27845  1
 S  S1  1  0.33339  0.66678  0.69526  1
 S  S2  1  0.33322  0.66643  0.61438  1
 Se  Se1  1  0.66677  0.33354  0.05050  1
 Se  Se2  1  0.66672  0.33345  0.13885  1
 Te  Te1  1  0.33329  0.66658  0.32879  1
 Te  Te2  1  0.66668  0.33335  0.42461  1
 Te  Te3  1  0.66647  0.33294  0.52531  1
 Te  Te4  1  0.33347  0.66694  0.22815  1
 W  W1  1  0.66662  0.33324  0.65485  1
