CIF file written using JARVIS-Tools package.
data_YbZnSn
_symmetry_space_group_name_H-M  'P6_3mc'
_cell_length_a       4.6295
_cell_length_b       4.6295
_cell_length_c       7.39954
_cell_angle_alpha    90
_cell_angle_beta     90
_cell_angle_gamma    120

_symmetry_Int_Tables_number  186
_chemical_formula_structural  YbZnSn
_chemical_formula_sum  Yb2Zn2Sn2
_cell_volume  137.34212972730896
_cell_formula_units_Z  2
loop_
  _symmetry_equiv_pos_site_id
 _symmetry_equiv_pos_as_xyz
 1  'x, y, z'
loop_
 _atom_site_type_symbol
 _atom_site_label
 _atom_site_symmetry_multiplicity
 _atom_site_fract_x
 _atom_site_fract_y
 _atom_site_fract_z
 _atom_site_fract_occupancy
 Sn  Sn1  1  0.66667  0.33333  0.97081  1
 Sn  Sn2  1  0.33333  0.66667  0.47081  1
 Yb  Yb1  1  0.00000  0.00000  0.25134  1
 Yb  Yb2  1  0.00000  0.00000  0.75134  1
 Zn  Zn1  1  0.66667  0.33333  0.56756  1
 Zn  Zn2  1  0.33333  0.66667  0.06756  1
