CIF file written using JARVIS-Tools package.
data_Sr2Ge2Se5
_symmetry_space_group_name_H-M  'P2_1/c'
_cell_length_a       8.51517
_cell_length_b       12.382
_cell_length_c       12.1353
_cell_angle_alpha    90
_cell_angle_beta     130.626
_cell_angle_gamma    90

_symmetry_Int_Tables_number  14
_chemical_formula_structural  Sr2Ge2Se5
_chemical_formula_sum  Sr8Ge8Se20
_cell_volume  971.105014078526
_cell_formula_units_Z  4
loop_
  _symmetry_equiv_pos_site_id
 _symmetry_equiv_pos_as_xyz
 1  'x, y, z'
loop_
 _atom_site_type_symbol
 _atom_site_label
 _atom_site_symmetry_multiplicity
 _atom_site_fract_x
 _atom_site_fract_y
 _atom_site_fract_z
 _atom_site_fract_occupancy
 Ge  Ge1  1  0.84264  0.95033  0.33279  1
 Ge  Ge2  1  0.48498  0.47963  0.68655  1
 Ge  Ge3  1  0.51502  0.97963  0.81345  1
 Ge  Ge4  1  0.48498  0.02037  0.18655  1
 Ge  Ge5  1  0.51502  0.52037  0.31345  1
 Ge  Ge6  1  0.15736  0.04967  0.66721  1
 Ge  Ge7  1  0.84264  0.54967  0.83279  1
 Ge  Ge8  1  0.15736  0.45033  0.16721  1
 Se  Se1  1  0.25032  0.94184  0.95421  1
 Se  Se2  1  0.89621  0.90939  0.55701  1
 Se  Se3  1  0.93765  0.79267  0.27727  1
 Se  Se4  1  0.47840  0.71479  0.29148  1
 Se  Se5  1  0.93765  0.70733  0.77727  1
 Se  Se6  1  0.06235  0.29267  0.22273  1
 Se  Se7  1  0.06235  0.20733  0.72273  1
 Se  Se8  1  0.10379  0.09061  0.44299  1
 Se  Se9  1  0.89621  0.59061  0.05701  1
 Se  Se10  1  0.47840  0.78521  0.79148  1
 Se  Se11  1  0.10379  0.40939  0.94299  1
 Se  Se12  1  0.74968  0.05816  0.04579  1
 Se  Se13  1  0.31838  0.50724  0.78455  1
 Se  Se14  1  0.52160  0.28521  0.70852  1
 Se  Se15  1  0.68162  0.49276  0.21545  1
 Se  Se16  1  0.31838  0.99276  0.28455  1
 Se  Se17  1  0.52160  0.21479  0.20852  1
 Se  Se18  1  0.74968  0.44184  0.54579  1
 Se  Se19  1  0.25032  0.55816  0.45421  1
 Se  Se20  1  0.68162  0.00724  0.71545  1
 Sr  Sr1  1  0.01292  0.16339  0.96936  1
 Sr  Sr2  1  0.98708  0.66339  0.53064  1
 Sr  Sr3  1  0.98708  0.83661  0.03064  1
 Sr  Sr4  1  0.01292  0.33661  0.46936  1
 Sr  Sr5  1  0.53846  0.30334  0.97944  1
 Sr  Sr6  1  0.46154  0.80334  0.52056  1
 Sr  Sr7  1  0.46154  0.69666  0.02056  1
 Sr  Sr8  1  0.53846  0.19666  0.47944  1
