CIF file written using JARVIS-Tools package.
data_MnCrF5
_symmetry_space_group_name_H-M  'C2/c'
_cell_length_a       5.34266
_cell_length_b       5.34266
_cell_length_c       7.39732
_cell_angle_alpha    69.7438
_cell_angle_beta     69.7438
_cell_angle_gamma    72.4854

_symmetry_Int_Tables_number  15
_chemical_formula_structural  MnCrF5
_chemical_formula_sum  Mn2Cr2F0
_cell_volume  181.86365063474238
_cell_formula_units_Z  2
loop_
  _symmetry_equiv_pos_site_id
 _symmetry_equiv_pos_as_xyz
 1  'x, y, z'
loop_
 _atom_site_type_symbol
 _atom_site_label
 _atom_site_symmetry_multiplicity
 _atom_site_fract_x
 _atom_site_fract_y
 _atom_site_fract_z
 _atom_site_fract_occupancy
 Cr  Cr1  1  0.00000  0.00000  0.00000  1
 Cr  Cr2  1  -0.00000  0.00000  0.50000  1
 F  F1  1  0.20518  0.28220  0.36860  1
 F  F2  1  0.71780  0.79482  0.13140  1
 F  F3  1  0.79482  0.71780  0.63140  1
 F  F4  1  0.28220  0.20518  0.86860  1
 F  F5  1  0.90261  0.09739  0.75000  1
 F  F6  1  0.09739  0.90261  0.25000  1
 F  F7  1  0.72248  0.32117  0.03620  1
 F  F8  1  0.67883  0.27752  0.46380  1
 F  F9  1  0.27752  0.67883  0.96380  1
 F  F10  1  0.32117  0.72248  0.53620  1
 Mn  Mn1  1  0.53489  0.46511  0.75000  1
 Mn  Mn2  1  0.46511  0.53489  0.25000  1
