CIF file written using JARVIS-Tools package.
data_CeInPd2
_symmetry_space_group_name_H-M  'P6_3/mmc'
_cell_length_a       4.6575
_cell_length_b       4.6575
_cell_length_c       8.99697
_cell_angle_alpha    90
_cell_angle_beta     90
_cell_angle_gamma    120

_symmetry_Int_Tables_number  194
_chemical_formula_structural  CeInPd2
_chemical_formula_sum  Ce2In2Pd4
_cell_volume  169.01774412200442
_cell_formula_units_Z  2
loop_
  _symmetry_equiv_pos_site_id
 _symmetry_equiv_pos_as_xyz
 1  'x, y, z'
loop_
 _atom_site_type_symbol
 _atom_site_label
 _atom_site_symmetry_multiplicity
 _atom_site_fract_x
 _atom_site_fract_y
 _atom_site_fract_z
 _atom_site_fract_occupancy
 Ce  Ce1  1  0.66667  0.33333  0.25000  1
 Ce  Ce2  1  0.33333  0.66667  0.75000  1
 In  In1  1  0.00000  0.00000  0.00000  1
 In  In2  1  0.00000  0.00000  0.50000  1
 Pd  Pd1  1  0.33333  0.66667  0.08678  1
 Pd  Pd2  1  0.66667  0.33333  0.58678  1
 Pd  Pd3  1  0.33333  0.66667  0.41322  1
 Pd  Pd4  1  0.66667  0.33333  0.91322  1
