CIF file written using JARVIS-Tools package.
data_H3ClO
_symmetry_space_group_name_H-M  'R3m'
_cell_length_a       3.92546
_cell_length_b       3.92546
_cell_length_c       3.92546
_cell_angle_alpha    76.4253
_cell_angle_beta     76.4253
_cell_angle_gamma    76.4254

_symmetry_Int_Tables_number  160
_chemical_formula_structural  H3ClO
_chemical_formula_sum  H3ClO
_cell_volume  56.113731444103685
_cell_formula_units_Z  1
loop_
  _symmetry_equiv_pos_site_id
 _symmetry_equiv_pos_as_xyz
 1  'x, y, z'
loop_
 _atom_site_type_symbol
 _atom_site_label
 _atom_site_symmetry_multiplicity
 _atom_site_fract_x
 _atom_site_fract_y
 _atom_site_fract_z
 _atom_site_fract_occupancy
 Cl  Cl1  1  -0.00513  -0.00513  -0.00513  1
 H  H1  1  0.35270  0.70117  0.70117  1
 H  H2  1  0.70117  0.35270  0.70117  1
 H  H3  1  0.70117  0.70117  0.35270  1
 O  O1  1  0.54608  0.54608  0.54608  1
