CIF file written using JARVIS-Tools package.
data_NbP2S8
_symmetry_space_group_name_H-M  'Cmce'
_cell_length_a       9.43079
_cell_length_b       11.6622
_cell_length_c       11.7535
_cell_angle_alpha    119.743
_cell_angle_beta     90
_cell_angle_gamma    90

_symmetry_Int_Tables_number  64
_chemical_formula_structural  NbP2S8
_chemical_formula_sum  Nb4P8S32
_cell_volume  1122.3923367930881
_cell_formula_units_Z  4
loop_
  _symmetry_equiv_pos_site_id
 _symmetry_equiv_pos_as_xyz
 1  'x, y, z'
loop_
 _atom_site_type_symbol
 _atom_site_label
 _atom_site_symmetry_multiplicity
 _atom_site_fract_x
 _atom_site_fract_y
 _atom_site_fract_z
 _atom_site_fract_occupancy
 Nb  Nb1  1  0.50000  0.57070  0.14141  1
 Nb  Nb2  1  0.50000  0.42930  0.85859  1
 Nb  Nb3  1  0.00000  0.07070  0.14141  1
 Nb  Nb4  1  0.00000  0.92930  0.85859  1
 P  P1  1  0.98317  0.00248  0.37751  1
 P  P2  1  0.48317  0.87503  0.37751  1
 P  P3  1  0.01683  0.37503  0.37751  1
 P  P4  1  0.51683  0.50248  0.37751  1
 P  P5  1  0.01683  0.99752  0.62249  1
 P  P6  1  0.98317  0.62497  0.62249  1
 P  P7  1  0.51683  0.12497  0.62249  1
 P  P8  1  0.48317  0.49752  0.62249  1
 S  S1  1  0.42215  0.07109  0.43523  1
 S  S2  1  0.07785  0.13586  0.56477  1
 S  S3  1  0.57785  0.92891  0.56477  1
 S  S4  1  0.62905  0.35623  -0.00000  1
 S  S5  1  0.07785  0.57109  0.43523  1
 S  S6  1  0.72150  0.51374  0.00000  1
 S  S7  1  0.61968  0.57717  0.77426  1
 S  S8  1  0.82908  0.75859  0.66709  1
 S  S9  1  0.32908  0.74141  0.33291  1
 S  S10  1  0.67092  0.59150  0.33291  1
 S  S11  1  0.38032  0.42283  0.22574  1
 S  S12  1  0.27850  0.48626  -0.00000  1
 S  S13  1  0.42215  0.63586  0.56477  1
 S  S14  1  0.17092  0.90850  0.66709  1
 S  S15  1  0.11968  0.92283  0.22574  1
 S  S16  1  0.87095  0.85623  -0.00000  1
 S  S17  1  0.22150  0.98626  -0.00000  1
 S  S18  1  0.32908  0.40850  0.66709  1
 S  S19  1  0.12905  0.14377  0.00000  1
 S  S20  1  0.67092  0.25859  0.66709  1
 S  S21  1  0.11968  0.69709  0.77426  1
 S  S22  1  0.92215  0.86414  0.43523  1
 S  S23  1  0.88032  0.30291  0.22574  1
 S  S24  1  0.17092  0.24141  0.33291  1
 S  S25  1  0.61968  0.80291  0.22574  1
 S  S26  1  0.57785  0.36414  0.43523  1
 S  S27  1  0.37095  0.64377  0.00000  1
 S  S28  1  0.77850  0.01374  0.00000  1
 S  S29  1  0.82908  0.09150  0.33291  1
 S  S30  1  0.88032  0.07717  0.77426  1
 S  S31  1  0.38032  0.19709  0.77426  1
 S  S32  1  0.92215  0.42891  0.56477  1
