CIF file written using JARVIS-Tools package.
data_Co3C
_symmetry_space_group_name_H-M  'Pnma'
_cell_length_a       4.43514
_cell_length_b       4.93228
_cell_length_c       6.69215
_cell_angle_alpha    90
_cell_angle_beta     90
_cell_angle_gamma    90

_symmetry_Int_Tables_number  62
_chemical_formula_structural  Co3C
_chemical_formula_sum  Co2C4
_cell_volume  146.39341979901758
_cell_formula_units_Z  4
loop_
  _symmetry_equiv_pos_site_id
 _symmetry_equiv_pos_as_xyz
 1  'x, y, z'
loop_
 _atom_site_type_symbol
 _atom_site_label
 _atom_site_symmetry_multiplicity
 _atom_site_fract_x
 _atom_site_fract_y
 _atom_site_fract_z
 _atom_site_fract_occupancy
 C  C1  1  0.55357  0.11898  0.75000  1
 C  C2  1  0.05357  0.38102  0.25000  1
 C  C3  1  0.94643  0.61898  0.75000  1
 C  C4  1  0.44643  0.88102  0.25000  1
 Co  Co1  1  0.67098  0.81893  0.93058  1
 Co  Co2  1  0.17098  0.68107  0.06942  1
 Co  Co3  1  0.82902  0.31893  0.56942  1
 Co  Co4  1  0.32902  0.18107  0.43058  1
 Co  Co5  1  0.84386  0.03755  0.25000  1
 Co  Co6  1  0.34386  0.46245  0.75000  1
 Co  Co7  1  0.65614  0.53755  0.25000  1
 Co  Co8  1  0.15614  0.96245  0.75000  1
 Co  Co9  1  0.67098  0.81893  0.56942  1
 Co  Co10  1  0.17098  0.68107  0.43058  1
 Co  Co11  1  0.82902  0.31893  0.93058  1
 Co  Co12  1  0.32902  0.18107  0.06942  1
