CIF file written using JARVIS-Tools package.
data_Y2Al9Co3
_symmetry_space_group_name_H-M  'Cmcm'
_cell_length_a       7.37983
_cell_length_b       7.37983
_cell_length_c       9.37233
_cell_angle_alpha    90
_cell_angle_beta     90
_cell_angle_gamma    119.323

_symmetry_Int_Tables_number  63
_chemical_formula_structural  Y2Al9Co3
_chemical_formula_sum  Y4Al8Co6
_cell_volume  445.03568595949565
_cell_formula_units_Z  2
loop_
  _symmetry_equiv_pos_site_id
 _symmetry_equiv_pos_as_xyz
 1  'x, y, z'
loop_
 _atom_site_type_symbol
 _atom_site_label
 _atom_site_symmetry_multiplicity
 _atom_site_fract_x
 _atom_site_fract_y
 _atom_site_fract_z
 _atom_site_fract_occupancy
 Al  Al1  1  0.33246  0.33246  0.54506  1
 Al  Al2  1  0.44651  0.66175  0.75000  1
 Al  Al3  1  0.55349  0.33825  0.25000  1
 Al  Al4  1  0.66754  0.66754  0.45494  1
 Al  Al5  1  0.00164  0.66496  0.92983  1
 Al  Al6  1  0.66754  0.66754  0.04506  1
 Al  Al7  1  0.33504  0.99836  0.07017  1
 Al  Al8  1  0.87563  0.87563  0.75000  1
 Al  Al9  1  0.66175  0.44651  0.75000  1
 Al  Al10  1  0.33825  0.55349  0.25000  1
 Al  Al11  1  0.12437  0.12437  0.25000  1
 Al  Al12  1  0.99836  0.33504  0.42983  1
 Al  Al13  1  0.66496  0.00164  0.92983  1
 Al  Al14  1  0.33504  0.99836  0.42983  1
 Al  Al15  1  0.00164  0.66496  0.57017  1
 Al  Al16  1  0.99836  0.33504  0.07017  1
 Al  Al17  1  0.66496  0.00164  0.57017  1
 Al  Al18  1  0.33246  0.33246  0.95494  1
 Co  Co1  1  0.00000  0.00000  0.00000  1
 Co  Co2  1  0.32920  0.67080  0.00000  1
 Co  Co3  1  0.67080  0.32920  0.50000  1
 Co  Co4  1  0.67080  0.32920  0.00000  1
 Co  Co5  1  0.00000  0.00000  0.50000  1
 Co  Co6  1  0.32920  0.67080  0.50000  1
 Y  Y1  1  0.99387  0.67166  0.25000  1
 Y  Y2  1  0.67166  0.99387  0.25000  1
 Y  Y3  1  0.32834  0.00613  0.75000  1
 Y  Y4  1  0.00613  0.32834  0.75000  1
