CIF file written using JARVIS-Tools package.
data_Na3FeO4
_symmetry_space_group_name_H-M  'Pmn2_1'
_cell_length_a       5.39242
_cell_length_b       5.948
_cell_length_c       7.37643
_cell_angle_alpha    90
_cell_angle_beta     90
_cell_angle_gamma    90

_symmetry_Int_Tables_number  31
_chemical_formula_structural  Na3FeO4
_chemical_formula_sum  Na6Fe2O8
_cell_volume  236.59212741151606
_cell_formula_units_Z  2
loop_
  _symmetry_equiv_pos_site_id
 _symmetry_equiv_pos_as_xyz
 1  'x, y, z'
loop_
 _atom_site_type_symbol
 _atom_site_label
 _atom_site_symmetry_multiplicity
 _atom_site_fract_x
 _atom_site_fract_y
 _atom_site_fract_z
 _atom_site_fract_occupancy
 Fe  Fe1  1  0.00096  0.18218  0.00000  1
 Fe  Fe2  1  0.50096  0.81782  0.50000  1
 Na  Na1  1  0.52287  0.84707  0.00000  1
 Na  Na2  1  0.01553  0.67770  0.24194  1
 Na  Na3  1  0.51553  0.32230  0.25806  1
 Na  Na4  1  0.02287  0.15293  0.50000  1
 Na  Na5  1  0.51553  0.32230  0.74194  1
 Na  Na6  1  0.01553  0.67770  0.75806  1
 O  O1  1  0.09491  0.90529  0.00000  1
 O  O2  1  0.68486  0.20205  0.00000  1
 O  O3  1  0.09030  0.29870  0.20719  1
 O  O4  1  0.59030  0.70130  0.29281  1
 O  O5  1  0.18486  0.79795  0.50000  1
 O  O6  1  0.59491  0.09471  0.50000  1
 O  O7  1  0.59030  0.70130  0.70719  1
 O  O8  1  0.09030  0.29870  0.79281  1
