CIF file written using JARVIS-Tools package.
data_Li3Ca
_symmetry_space_group_name_H-M  'I4/mmm'
_cell_length_a       5.82599
_cell_length_b       5.82599
_cell_length_c       5.82599
_cell_angle_alpha    133.576
_cell_angle_beta     133.576
_cell_angle_gamma    67.7506

_symmetry_Int_Tables_number  139
_chemical_formula_structural  Li3Ca
_chemical_formula_sum  Li3Ca
_cell_volume  102.01520891314216
_cell_formula_units_Z  1
loop_
  _symmetry_equiv_pos_site_id
 _symmetry_equiv_pos_as_xyz
 1  'x, y, z'
loop_
 _atom_site_type_symbol
 _atom_site_label
 _atom_site_symmetry_multiplicity
 _atom_site_fract_x
 _atom_site_fract_y
 _atom_site_fract_z
 _atom_site_fract_occupancy
 Ca  Ca1  1  0.00000  0.00000  0.00000  1
 Li  Li1  1  0.75000  0.25000  0.50000  1
 Li  Li2  1  0.25000  0.75000  0.50000  1
 Li  Li3  1  0.50000  0.50000  0.00000  1
