CIF file written using JARVIS-Tools package.
data_K7LiSi8
_symmetry_space_group_name_H-M  'Pa-3'
_cell_length_a       12.4541
_cell_length_b       12.4541
_cell_length_c       12.4541
_cell_angle_alpha    90
_cell_angle_beta     90
_cell_angle_gamma    90

_symmetry_Int_Tables_number  205
_chemical_formula_structural  K7LiSi8
_chemical_formula_sum  K28Li4Si32
_cell_volume  1931.6662055474371
_cell_formula_units_Z  4
loop_
  _symmetry_equiv_pos_site_id
 _symmetry_equiv_pos_as_xyz
 1  'x, y, z'
loop_
 _atom_site_type_symbol
 _atom_site_label
 _atom_site_symmetry_multiplicity
 _atom_site_fract_x
 _atom_site_fract_y
 _atom_site_fract_z
 _atom_site_fract_occupancy
 K  K1  1  0.27407  0.81102  0.04387  1
 K  K2  1  0.04387  0.27407  0.81102  1
 K  K3  1  0.72593  0.31102  0.45613  1
 K  K4  1  0.22593  0.18898  0.54387  1
 K  K5  1  0.45613  0.72593  0.31102  1
 K  K6  1  0.18898  0.54387  0.22593  1
 K  K7  1  0.31102  0.45613  0.72593  1
 K  K8  1  0.81102  0.04387  0.27407  1
 K  K9  1  0.31102  0.04387  0.22593  1
 K  K10  1  0.22593  0.31102  0.04387  1
 K  K11  1  0.04387  0.22593  0.31102  1
 K  K12  1  0.45613  0.77407  0.81102  1
 K  K13  1  0.54387  0.22593  0.18898  1
 K  K14  1  0.95613  0.72593  0.18898  1
 K  K15  1  0.27407  0.68898  0.54387  1
 K  K16  1  0.77407  0.81102  0.45613  1
 K  K17  1  0.54387  0.27407  0.68898  1
 K  K18  1  0.81102  0.45613  0.77407  1
 K  K19  1  0.68898  0.54387  0.27407  1
 K  K20  1  0.18898  0.95613  0.72593  1
 K  K21  1  0.00000  0.00000  0.00000  1
 K  K22  1  0.50000  0.00000  0.50000  1
 K  K23  1  0.50000  0.50000  0.00000  1
 K  K24  1  0.00000  0.50000  0.50000  1
 K  K25  1  0.95613  0.77407  0.68898  1
 K  K26  1  0.77407  0.68898  0.95613  1
 K  K27  1  0.68898  0.95613  0.77407  1
 K  K28  1  0.72593  0.18898  0.95613  1
 Li  Li1  1  0.50000  0.50000  0.50000  1
 Li  Li2  1  0.00000  0.00000  0.50000  1
 Li  Li3  1  0.50000  0.00000  0.00000  1
 Li  Li4  1  0.00000  0.50000  0.00000  1
 Si  Si1  1  0.20007  0.56720  0.94814  1
 Si  Si2  1  0.94814  0.20007  0.56720  1
 Si  Si3  1  0.79993  0.06720  0.55186  1
 Si  Si4  1  0.29993  0.43280  0.44814  1
 Si  Si5  1  0.55186  0.79993  0.06720  1
 Si  Si6  1  0.43280  0.44814  0.29993  1
 Si  Si7  1  0.20007  0.93280  0.44814  1
 Si  Si8  1  0.56720  0.94814  0.20007  1
 Si  Si9  1  0.06720  0.94814  0.29993  1
 Si  Si10  1  0.29993  0.06720  0.94814  1
 Si  Si11  1  0.94814  0.29993  0.06720  1
 Si  Si12  1  0.55186  0.70007  0.56720  1
 Si  Si13  1  0.79993  0.43280  0.05186  1
 Si  Si14  1  0.05186  0.79993  0.43280  1
 Si  Si15  1  0.06720  0.55186  0.79993  1
 Si  Si16  1  0.80318  0.19682  0.69682  1
 Si  Si17  1  0.44814  0.20007  0.93280  1
 Si  Si18  1  0.56720  0.55186  0.70007  1
 Si  Si19  1  0.93280  0.44814  0.20007  1
 Si  Si20  1  0.43280  0.05186  0.79993  1
 Si  Si21  1  0.30318  0.30318  0.30318  1
 Si  Si22  1  0.19682  0.69682  0.80318  1
 Si  Si23  1  0.70007  0.56720  0.55186  1
 Si  Si24  1  0.69682  0.80318  0.19682  1
 Si  Si25  1  0.69682  0.69682  0.69682  1
 Si  Si26  1  0.80318  0.30318  0.19682  1
 Si  Si27  1  0.19682  0.80318  0.30318  1
 Si  Si28  1  0.30318  0.19682  0.80318  1
 Si  Si29  1  0.05186  0.70007  0.93280  1
 Si  Si30  1  0.44814  0.29993  0.43280  1
 Si  Si31  1  0.70007  0.93280  0.05186  1
 Si  Si32  1  0.93280  0.05186  0.70007  1
