CIF file written using JARVIS-Tools package.
data_LiAg2F4
_symmetry_space_group_name_H-M  'P42_12'
_cell_length_a       6.15855
_cell_length_b       7.93696
_cell_length_c       7.93971
_cell_angle_alpha    89.999
_cell_angle_beta     90.0323
_cell_angle_gamma    89.9949

_symmetry_Int_Tables_number  90
_chemical_formula_structural  LiAg2F4
_chemical_formula_sum  Li4Ag8F6
_cell_volume  388.0950149902744
_cell_formula_units_Z  4
loop_
  _symmetry_equiv_pos_site_id
 _symmetry_equiv_pos_as_xyz
 1  'x, y, z'
loop_
 _atom_site_type_symbol
 _atom_site_label
 _atom_site_symmetry_multiplicity
 _atom_site_fract_x
 _atom_site_fract_y
 _atom_site_fract_z
 _atom_site_fract_occupancy
 Ag  Ag1  1  0.24985  0.39506  0.89505  1
 Ag  Ag2  1  0.25017  0.89504  0.10498  1
 Ag  Ag3  1  0.75029  0.92007  0.42000  1
 Ag  Ag4  1  0.75008  0.58001  0.08003  1
 Ag  Ag5  1  0.25019  0.60502  0.39502  1
 Ag  Ag6  1  0.74968  0.42004  0.58004  1
 Ag  Ag7  1  0.24979  0.10500  0.60498  1
 Ag  Ag8  1  0.74994  0.08004  0.91995  1
 F  F1  1  0.04979  0.30433  0.48347  1
 F  F2  1  0.55138  0.30569  0.01613  1
 F  F3  1  0.55103  0.19434  0.48379  1
 F  F4  1  0.94870  0.80565  0.98390  1
 F  F5  1  0.05028  0.19559  0.01666  1
 F  F6  1  0.44954  0.98343  0.80436  1
 F  F7  1  0.05068  0.01658  0.30445  1
 F  F8  1  0.55175  0.01610  0.19426  1
 F  F9  1  0.05054  0.48339  0.19564  1
 F  F10  1  0.94841  0.98386  0.69439  1
 F  F11  1  0.94896  0.69433  0.51618  1
 F  F12  1  0.44969  0.69559  0.98333  1
 F  F13  1  0.45010  0.80438  0.51656  1
 F  F14  1  0.55157  0.48390  0.30563  1
 F  F15  1  0.94823  0.51609  0.80572  1
 F  F16  1  0.44935  0.51659  0.69555  1
 Li  Li1  1  0.97569  0.74995  0.75006  1
 Li  Li2  1  0.46963  0.75001  0.74997  1
 Li  Li3  1  0.52432  0.24998  0.24993  1
 Li  Li4  1  0.03036  0.25000  0.25004  1
