CIF file written using JARVIS-Tools package.
data_Nd2MgNi2
_symmetry_space_group_name_H-M  'P4/mbm'
_cell_length_a       7.50656
_cell_length_b       7.50656
_cell_length_c       3.85815
_cell_angle_alpha    90
_cell_angle_beta     90
_cell_angle_gamma    90

_symmetry_Int_Tables_number  127
_chemical_formula_structural  Nd2MgNi2
_chemical_formula_sum  Nd4Mg2Ni4
_cell_volume  217.40066670393327
_cell_formula_units_Z  2
loop_
  _symmetry_equiv_pos_site_id
 _symmetry_equiv_pos_as_xyz
 1  'x, y, z'
loop_
 _atom_site_type_symbol
 _atom_site_label
 _atom_site_symmetry_multiplicity
 _atom_site_fract_x
 _atom_site_fract_y
 _atom_site_fract_z
 _atom_site_fract_occupancy
 Mg  Mg1  1  0.50000  0.50000  0.00000  1
 Mg  Mg2  1  0.00000  0.00000  0.00000  1
 Nd  Nd1  1  0.32630  0.82630  0.50000  1
 Nd  Nd2  1  0.82630  0.67370  0.50000  1
 Nd  Nd3  1  0.17370  0.32630  0.50000  1
 Nd  Nd4  1  0.67370  0.17370  0.50000  1
 Ni  Ni1  1  0.12081  0.62081  0.00000  1
 Ni  Ni2  1  0.62081  0.87919  0.00000  1
 Ni  Ni3  1  0.87919  0.37919  0.00000  1
 Ni  Ni4  1  0.37919  0.12081  0.00000  1
