CIF file written using JARVIS-Tools package.
data_KNbF6
_symmetry_space_group_name_H-M  'P4_2/mcm'
_cell_length_a       5.2884
_cell_length_b       5.2884
_cell_length_c       9.69162
_cell_angle_alpha    90
_cell_angle_beta     90
_cell_angle_gamma    90

_symmetry_Int_Tables_number  132
_chemical_formula_structural  KNbF6
_chemical_formula_sum  K2Nb2F2
_cell_volume  271.0466805717816
_cell_formula_units_Z  2
loop_
  _symmetry_equiv_pos_site_id
 _symmetry_equiv_pos_as_xyz
 1  'x, y, z'
loop_
 _atom_site_type_symbol
 _atom_site_label
 _atom_site_symmetry_multiplicity
 _atom_site_fract_x
 _atom_site_fract_y
 _atom_site_fract_z
 _atom_site_fract_occupancy
 F  F1  1  0.18425  0.18460  0.60953  1
 F  F2  1  0.81575  0.81540  0.60953  1
 F  F3  1  0.18460  0.81575  0.39047  1
 F  F4  1  0.81540  0.18425  0.39047  1
 F  F5  1  0.26109  0.26109  0.25000  1
 F  F6  1  0.26109  0.73891  0.75000  1
 F  F7  1  0.73891  0.26109  0.75000  1
 F  F8  1  0.73891  0.73891  0.25000  1
 F  F9  1  0.81575  0.18460  0.10953  1
 F  F10  1  0.18460  0.18425  0.89047  1
 F  F11  1  0.81540  0.81575  0.89047  1
 F  F12  1  0.18425  0.81540  0.10953  1
 K  K1  1  0.50000  0.50000  0.50000  1
 K  K2  1  0.50000  0.50000  0.00000  1
 Nb  Nb1  1  0.00000  0.00000  0.75000  1
 Nb  Nb2  1  0.00000  0.00000  0.25000  1
