CIF file written using JARVIS-Tools package.
data_Ni2W3N
_symmetry_space_group_name_H-M  'P4_132'
_cell_length_a       6.68248
_cell_length_b       6.68248
_cell_length_c       6.68248
_cell_angle_alpha    90
_cell_angle_beta     90
_cell_angle_gamma    90

_symmetry_Int_Tables_number  213
_chemical_formula_structural  Ni2W3N
_chemical_formula_sum  Ni8W2N4
_cell_volume  298.40924209847634
_cell_formula_units_Z  4
loop_
  _symmetry_equiv_pos_site_id
 _symmetry_equiv_pos_as_xyz
 1  'x, y, z'
loop_
 _atom_site_type_symbol
 _atom_site_label
 _atom_site_symmetry_multiplicity
 _atom_site_fract_x
 _atom_site_fract_y
 _atom_site_fract_z
 _atom_site_fract_occupancy
 N  N1  1  0.87500  0.12500  0.62500  1
 N  N2  1  0.37500  0.37500  0.37500  1
 N  N3  1  0.12500  0.62500  0.87500  1
 N  N4  1  0.62500  0.87500  0.12500  1
 Ni  Ni1  1  0.68447  0.68447  0.68447  1
 Ni  Ni2  1  0.93447  0.56553  0.43447  1
 Ni  Ni3  1  0.06553  0.06553  0.06553  1
 Ni  Ni4  1  0.43447  0.93447  0.56553  1
 Ni  Ni5  1  0.31553  0.18447  0.81553  1
 Ni  Ni6  1  0.81553  0.31553  0.18447  1
 Ni  Ni7  1  0.18447  0.81553  0.31553  1
 Ni  Ni8  1  0.56553  0.43447  0.93447  1
 W  W1  1  0.79984  0.95016  0.37500  1
 W  W2  1  0.20016  0.45016  0.12500  1
 W  W3  1  0.45016  0.12500  0.20016  1
 W  W4  1  0.95016  0.37500  0.79984  1
 W  W5  1  0.12500  0.20016  0.45016  1
 W  W6  1  0.70016  0.04984  0.87500  1
 W  W7  1  0.04984  0.87500  0.70016  1
 W  W8  1  0.54984  0.62500  0.29984  1
 W  W9  1  0.37500  0.79984  0.95016  1
 W  W10  1  0.29984  0.54984  0.62500  1
 W  W11  1  0.87500  0.70016  0.04984  1
 W  W12  1  0.62500  0.29984  0.54984  1
