CIF file written using JARVIS-Tools package.
data_TbB2Rh2C
_symmetry_space_group_name_H-M  'I4/mmm'
_cell_length_a       3.80161
_cell_length_b       3.8016
_cell_length_c       5.81751
_cell_angle_alpha    109.071
_cell_angle_beta     109.071
_cell_angle_gamma    89.9999

_symmetry_Int_Tables_number  139
_chemical_formula_structural  TbB2Rh2C
_chemical_formula_sum  TbB2Rh2C
_cell_volume  74.56156686335565
_cell_formula_units_Z  1
loop_
  _symmetry_equiv_pos_site_id
 _symmetry_equiv_pos_as_xyz
 1  'x, y, z'
loop_
 _atom_site_type_symbol
 _atom_site_label
 _atom_site_symmetry_multiplicity
 _atom_site_fract_x
 _atom_site_fract_y
 _atom_site_fract_z
 _atom_site_fract_occupancy
 B  B1  1  0.35584  0.35584  0.71167  1
 B  B2  1  0.64416  0.64416  0.28833  1
 C  C1  1  0.50000  0.50000  -0.00000  1
 Rh  Rh1  1  0.75000  0.25000  0.50000  1
 Rh  Rh2  1  0.25000  0.75000  0.50000  1
 Tb  Tb1  1  0.00000  0.00000  0.00000  1
