CIF file written using JARVIS-Tools package.
data_KAgBr3
_symmetry_space_group_name_H-M  'R-3c'
_cell_length_a       7.39191
_cell_length_b       7.39191
_cell_length_c       7.39191
_cell_angle_alpha    62.0502
_cell_angle_beta     62.0501
_cell_angle_gamma    62.0502

_symmetry_Int_Tables_number  167
_chemical_formula_structural  KAgBr3
_chemical_formula_sum  K2Ag2Br6
_cell_volume  298.69049478446624
_cell_formula_units_Z  2
loop_
  _symmetry_equiv_pos_site_id
 _symmetry_equiv_pos_as_xyz
 1  'x, y, z'
loop_
 _atom_site_type_symbol
 _atom_site_label
 _atom_site_symmetry_multiplicity
 _atom_site_fract_x
 _atom_site_fract_y
 _atom_site_fract_z
 _atom_site_fract_occupancy
 Ag  Ag1  1  0.00575  0.00575  0.00575  1
 Ag  Ag2  1  0.50575  0.50575  0.50575  1
 Br  Br1  1  0.25571  0.81913  0.69236  1
 Br  Br2  1  0.81913  0.69236  0.25571  1
 Br  Br3  1  0.69236  0.25571  0.81913  1
 Br  Br4  1  0.19236  0.31913  0.75571  1
 Br  Br5  1  0.75571  0.19236  0.31913  1
 Br  Br6  1  0.31913  0.75571  0.19236  1
 K  K1  1  0.25555  0.25555  0.25555  1
 K  K2  1  0.75555  0.75555  0.75555  1
