CIF file written using JARVIS-Tools package.
data_MgCuO2
_symmetry_space_group_name_H-M  'Cmme'
_cell_length_a       3.04281
_cell_length_b       5.14896
_cell_length_c       5.14896
_cell_angle_alpha    107.831
_cell_angle_beta     90
_cell_angle_gamma    90

_symmetry_Int_Tables_number  67
_chemical_formula_structural  MgCuO2
_chemical_formula_sum  Mg2Cu2O4
_cell_volume  76.79555005961876
_cell_formula_units_Z  2
loop_
  _symmetry_equiv_pos_site_id
 _symmetry_equiv_pos_as_xyz
 1  'x, y, z'
loop_
 _atom_site_type_symbol
 _atom_site_label
 _atom_site_symmetry_multiplicity
 _atom_site_fract_x
 _atom_site_fract_y
 _atom_site_fract_z
 _atom_site_fract_occupancy
 Cu  Cu1  1  0.50000  0.00000  0.50000  1
 Cu  Cu2  1  0.50000  0.50000  -0.00000  1
 Mg  Mg1  1  0.00000  0.50000  0.50000  1
 Mg  Mg2  1  0.00000  0.00000  0.00000  1
 O  O1  1  0.08432  0.25000  0.75000  1
 O  O2  1  0.91568  0.75000  0.25000  1
 O  O3  1  0.50000  0.25000  0.25000  1
 O  O4  1  0.50000  0.75000  0.75000  1
