CIF file written using JARVIS-Tools package.
data_AlPO4
_symmetry_space_group_name_H-M  'C222_1'
_cell_length_a       4.99297
_cell_length_b       4.99296
_cell_length_c       6.9043
_cell_angle_alpha    90
_cell_angle_beta     90
_cell_angle_gamma    90.12

_symmetry_Int_Tables_number  20
_chemical_formula_structural  AlPO4
_chemical_formula_sum  Al2P2O8
_cell_volume  172.12195286000392
_cell_formula_units_Z  2
loop_
  _symmetry_equiv_pos_site_id
 _symmetry_equiv_pos_as_xyz
 1  'x, y, z'
loop_
 _atom_site_type_symbol
 _atom_site_label
 _atom_site_symmetry_multiplicity
 _atom_site_fract_x
 _atom_site_fract_y
 _atom_site_fract_z
 _atom_site_fract_occupancy
 Al  Al1  1  0.18893  0.18893  0.25000  1
 Al  Al2  1  0.81107  0.81107  0.75000  1
 O  O1  1  0.26703  0.39013  0.04890  1
 O  O2  1  0.73297  0.60987  0.54890  1
 O  O3  1  0.39013  0.26703  0.45110  1
 O  O4  1  0.60987  0.73297  0.95110  1
 O  O5  1  0.23478  0.85512  0.17795  1
 O  O6  1  0.76522  0.14488  0.67795  1
 O  O7  1  0.85512  0.23478  0.32205  1
 O  O8  1  0.14488  0.76522  0.82205  1
 P  P1  1  0.31318  0.68682  0.00000  1
 P  P2  1  0.68682  0.31318  0.50000  1
