CIF file written using JARVIS-Tools package.
data_TbAl2Ni
_symmetry_space_group_name_H-M  'Cmcm'
_cell_length_a       4.06152
_cell_length_b       5.52856
_cell_length_c       6.89107
_cell_angle_alpha    90
_cell_angle_beta     90
_cell_angle_gamma    111.55

_symmetry_Int_Tables_number  63
_chemical_formula_structural  TbAl2Ni
_chemical_formula_sum  Tb2Al4Ni2
_cell_volume  143.91766581061404
_cell_formula_units_Z  2
loop_
  _symmetry_equiv_pos_site_id
 _symmetry_equiv_pos_as_xyz
 1  'x, y, z'
loop_
 _atom_site_type_symbol
 _atom_site_label
 _atom_site_symmetry_multiplicity
 _atom_site_fract_x
 _atom_site_fract_y
 _atom_site_fract_z
 _atom_site_fract_occupancy
 Al  Al1  1  0.34175  0.68350  0.94560  1
 Al  Al2  1  0.65825  0.31650  0.05440  1
 Al  Al3  1  0.65825  0.31650  0.44560  1
 Al  Al4  1  0.34175  0.68350  0.55440  1
 Ni  Ni1  1  0.78351  0.56703  0.75000  1
 Ni  Ni2  1  0.21649  0.43297  0.25000  1
 Tb  Tb1  1  0.05919  0.11838  0.75000  1
 Tb  Tb2  1  0.94081  0.88162  0.25000  1
