CIF file written using JARVIS-Tools package.
data_MnF3
_symmetry_space_group_name_H-M  'R-3c'
_cell_length_a       5.17265
_cell_length_b       5.17223
_cell_length_c       13.4331
_cell_angle_alpha    89.9927
_cell_angle_beta     90
_cell_angle_gamma    120.003

_symmetry_Int_Tables_number  167
_chemical_formula_structural  MnF3
_chemical_formula_sum  Mn6F8
_cell_volume  311.2338093492292
_cell_formula_units_Z  6
loop_
  _symmetry_equiv_pos_site_id
 _symmetry_equiv_pos_as_xyz
 1  'x, y, z'
loop_
 _atom_site_type_symbol
 _atom_site_label
 _atom_site_symmetry_multiplicity
 _atom_site_fract_x
 _atom_site_fract_y
 _atom_site_fract_z
 _atom_site_fract_occupancy
 F  F1  1  0.73696  0.07022  0.41664  1
 F  F2  1  0.07021  0.33338  0.58333  1
 F  F3  1  0.73684  0.66662  0.91667  1
 F  F4  1  0.92979  0.66662  0.41667  1
 F  F5  1  0.26316  0.33338  0.08333  1
 F  F6  1  0.59636  0.59647  0.25002  1
 F  F7  1  0.40347  0.00000  0.25000  1
 F  F8  1  0.40364  0.40353  0.74998  1
 F  F9  1  -0.00010  0.40353  0.24998  1
 F  F10  1  0.26304  0.92978  0.58336  1
 F  F11  1  0.33327  0.07022  0.91664  1
 F  F12  1  0.59653  0.00000  0.75000  1
 F  F13  1  0.66673  0.92978  0.08336  1
 F  F14  1  0.92970  0.26307  0.91668  1
 F  F15  1  0.66662  0.73693  0.58332  1
 F  F16  1  0.07030  0.73693  0.08332  1
 F  F17  1  0.33338  0.26307  0.41668  1
 F  F18  1  0.00010  0.59647  0.75002  1
 Mn  Mn1  1  0.66668  0.33333  0.83333  1
 Mn  Mn2  1  0.33335  0.66667  0.66667  1
 Mn  Mn3  1  0.33332  0.66667  0.16667  1
 Mn  Mn4  1  0.66665  0.33333  0.33333  1
 Mn  Mn5  1  -0.00000  0.00000  0.50000  1
 Mn  Mn6  1  0.00000  0.00000  0.00000  1
