CIF file written using JARVIS-Tools package.
data_PrCo3
_symmetry_space_group_name_H-M  'R-3m'
_cell_length_a       8.76716
_cell_length_b       8.76716
_cell_length_c       8.76716
_cell_angle_alpha    33.5732
_cell_angle_beta     33.5732
_cell_angle_gamma    33.5733

_symmetry_Int_Tables_number  166
_chemical_formula_structural  PrCo3
_chemical_formula_sum  Pr3Co9
_cell_volume  183.56307140868324
_cell_formula_units_Z  3
loop_
  _symmetry_equiv_pos_site_id
 _symmetry_equiv_pos_as_xyz
 1  'x, y, z'
loop_
 _atom_site_type_symbol
 _atom_site_label
 _atom_site_symmetry_multiplicity
 _atom_site_fract_x
 _atom_site_fract_y
 _atom_site_fract_z
 _atom_site_fract_occupancy
 Co  Co1  1  0.91531  0.42368  0.42368  1
 Co  Co2  1  0.33192  0.33192  0.33192  1
 Co  Co3  1  0.57632  0.57632  0.08469  1
 Co  Co4  1  0.42368  0.42368  0.91531  1
 Co  Co5  1  0.66808  0.66808  0.66808  1
 Co  Co6  1  0.42368  0.91531  0.42368  1
 Co  Co7  1  0.57632  0.08469  0.57632  1
 Co  Co8  1  0.50000  0.50000  0.50000  1
 Co  Co9  1  0.08469  0.57632  0.57632  1
 Pr  Pr1  1  0.86008  0.86008  0.86008  1
 Pr  Pr2  1  0.13992  0.13992  0.13992  1
 Pr  Pr3  1  0.00000  0.00000  0.00000  1
