CIF file written using JARVIS-Tools package.
data_Sr2FeCuSO3
_symmetry_space_group_name_H-M  'P4/nmm'
_cell_length_a       3.88479
_cell_length_b       3.88479
_cell_length_c       15.7691
_cell_angle_alpha    90
_cell_angle_beta     90
_cell_angle_gamma    90

_symmetry_Int_Tables_number  129
_chemical_formula_structural  Sr2FeCuSO3
_chemical_formula_sum  Sr4Fe2Cu2S2O6
_cell_volume  237.98105016359338
_cell_formula_units_Z  2
loop_
  _symmetry_equiv_pos_site_id
 _symmetry_equiv_pos_as_xyz
 1  'x, y, z'
loop_
 _atom_site_type_symbol
 _atom_site_label
 _atom_site_symmetry_multiplicity
 _atom_site_fract_x
 _atom_site_fract_y
 _atom_site_fract_z
 _atom_site_fract_occupancy
 Cu  Cu1  1  0.50000  0.50000  0.00000  1
 Cu  Cu2  1  0.00000  0.00000  0.00000  1
 Fe  Fe1  1  0.00000  0.50000  0.30776  1
 Fe  Fe2  1  0.50000  0.00000  0.69224  1
 O  O1  1  0.50000  0.50000  0.28934  1
 O  O2  1  0.00000  0.00000  0.28934  1
 O  O3  1  0.00000  0.00000  0.71066  1
 O  O4  1  0.50000  0.50000  0.71066  1
 O  O5  1  0.00000  0.50000  0.43090  1
 O  O6  1  0.50000  0.00000  0.56910  1
 S  S1  1  0.00000  0.50000  0.09218  1
 S  S2  1  0.50000  0.00000  0.90782  1
 Sr  Sr1  1  0.50000  0.00000  0.18477  1
 Sr  Sr2  1  0.00000  0.50000  0.81523  1
 Sr  Sr3  1  0.50000  0.00000  0.41220  1
 Sr  Sr4  1  0.00000  0.50000  0.58780  1
