CIF file written using JARVIS-Tools package.
data_Li3ZnPCO7
_symmetry_space_group_name_H-M  'P2_1'
_cell_length_a       5.03713
_cell_length_b       6.43297
_cell_length_c       8.36477
_cell_angle_alpha    90
_cell_angle_beta     91.4367
_cell_angle_gamma    90

_symmetry_Int_Tables_number  4
_chemical_formula_structural  Li3ZnPCO7
_chemical_formula_sum  Li6Zn2P2C2O4
_cell_volume  270.9640844408461
_cell_formula_units_Z  2
loop_
  _symmetry_equiv_pos_site_id
 _symmetry_equiv_pos_as_xyz
 1  'x, y, z'
loop_
 _atom_site_type_symbol
 _atom_site_label
 _atom_site_symmetry_multiplicity
 _atom_site_fract_x
 _atom_site_fract_y
 _atom_site_fract_z
 _atom_site_fract_occupancy
 C  C1  1  0.53777  0.73628  0.87751  1
 C  C2  1  0.46223  0.23628  0.12249  1
 Li  Li1  1  0.04506  0.52401  0.00228  1
 Li  Li2  1  0.42110  0.21255  0.81247  1
 Li  Li3  1  0.44581  0.39212  0.46946  1
 Li  Li4  1  0.55419  0.89212  0.53054  1
 Li  Li5  1  0.57890  0.71255  0.18753  1
 Li  Li6  1  0.95494  0.02401  0.99772  1
 O  O1  1  0.20994  0.25580  0.08752  1
 O  O2  1  0.79006  0.75580  0.91248  1
 O  O3  1  0.07630  0.06437  0.76256  1
 O  O4  1  0.04082  0.44035  0.76781  1
 O  O5  1  0.45585  0.75284  0.72967  1
 O  O6  1  0.37411  0.70323  0.99048  1
 O  O7  1  0.10406  0.26798  0.50272  1
 O  O8  1  0.89594  0.76798  0.49728  1
 O  O9  1  0.92370  0.56437  0.23744  1
 O  O10  1  0.54415  0.25284  0.27033  1
 O  O11  1  0.95918  0.94035  0.23219  1
 O  O12  1  0.65674  0.22618  0.63221  1
 O  O13  1  0.34326  0.72618  0.36779  1
 O  O14  1  0.62589  0.20323  0.00952  1
 P  P1  1  0.95885  0.25039  0.66425  1
 P  P2  1  0.04115  0.75039  0.33575  1
 Zn  Zn1  1  0.95419  0.24852  0.28415  1
 Zn  Zn2  1  0.04581  0.74852  0.71585  1
