CIF file written using JARVIS-Tools package.
data_Sr2YTlV2O7
_symmetry_space_group_name_H-M  'P4/mmm'
_cell_length_a       3.85088
_cell_length_b       3.85187
_cell_length_c       12.5621
_cell_angle_alpha    90.0026
_cell_angle_beta     90.0003
_cell_angle_gamma    90.0004

_symmetry_Int_Tables_number  123
_chemical_formula_structural  Sr2YTlV2O7
_chemical_formula_sum  Sr2YTlV2O7
_cell_volume  186.33512765843824
_cell_formula_units_Z  1
loop_
  _symmetry_equiv_pos_site_id
 _symmetry_equiv_pos_as_xyz
 1  'x, y, z'
loop_
 _atom_site_type_symbol
 _atom_site_label
 _atom_site_symmetry_multiplicity
 _atom_site_fract_x
 _atom_site_fract_y
 _atom_site_fract_z
 _atom_site_fract_occupancy
 O  O1  1  0.00003  0.50000  0.61665  1
 O  O2  1  0.50001  0.00001  0.61661  1
 O  O3  1  0.00001  0.49997  0.38335  1
 O  O4  1  0.50000  -0.00005  0.38338  1
 O  O5  1  0.99999  -0.00001  0.78682  1
 O  O6  1  0.99995  -0.00002  0.21318  1
 O  O7  1  0.50018  0.50012  0.00000  1
 Sr  Sr1  1  0.49995  0.49996  0.80775  1
 Sr  Sr2  1  0.49994  0.50006  0.19226  1
 Tl  Tl1  1  0.99991  0.00001  0.00000  1
 V  V1  1  0.00001  0.00000  0.63508  1
 V  V2  1  0.00000  -0.00003  0.36492  1
 Y  Y1  1  0.50002  0.49998  0.50000  1
