CIF file written using JARVIS-Tools package.
data_N
_symmetry_space_group_name_H-M  'P4_2/mnm'
_cell_length_a       3.94174
_cell_length_b       3.94174
_cell_length_c       5.144
_cell_angle_alpha    90
_cell_angle_beta     90
_cell_angle_gamma    90

_symmetry_Int_Tables_number  136
_chemical_formula_structural  N
_chemical_formula_sum  N4
_cell_volume  79.92387257856582
_cell_formula_units_Z  4
loop_
  _symmetry_equiv_pos_site_id
 _symmetry_equiv_pos_as_xyz
 1  'x, y, z'
loop_
 _atom_site_type_symbol
 _atom_site_label
 _atom_site_symmetry_multiplicity
 _atom_site_fract_x
 _atom_site_fract_y
 _atom_site_fract_z
 _atom_site_fract_occupancy
 N  N1  1  0.90050  0.90050  0.00000  1
 N  N2  1  0.59950  0.40050  0.50000  1
 N  N3  1  0.09950  0.09950  0.00000  1
 N  N4  1  0.40050  0.59950  0.50000  1
