CIF file written using JARVIS-Tools package.
data_MoWSeS3
_symmetry_space_group_name_H-M  'P3m1'
_cell_length_a       3.22527
_cell_length_b       3.2253
_cell_length_c       32.8773
_cell_angle_alpha    90.0119
_cell_angle_beta     90
_cell_angle_gamma    120

_symmetry_Int_Tables_number  156
_chemical_formula_structural  MoWSeS3
_chemical_formula_sum  Mo2W2Se2S6
_cell_volume  296.1860941267124
_cell_formula_units_Z  2
loop_
  _symmetry_equiv_pos_site_id
 _symmetry_equiv_pos_as_xyz
 1  'x, y, z'
loop_
 _atom_site_type_symbol
 _atom_site_label
 _atom_site_symmetry_multiplicity
 _atom_site_fract_x
 _atom_site_fract_y
 _atom_site_fract_z
 _atom_site_fract_occupancy
 Mo  Mo1  1  0.33349  0.66698  0.08997  1
 Mo  Mo2  1  0.66666  0.33332  0.27946  1
 S  S1  1  0.33328  0.66657  0.32678  1
 S  S2  1  0.66654  0.33308  0.04268  1
 S  S3  1  0.66674  0.33349  0.42095  1
 S  S4  1  0.66712  0.33424  0.13730  1
 S  S5  1  0.66682  0.33363  0.51611  1
 S  S6  1  0.33333  0.66667  0.23214  1
 Se  Se1  1  0.33313  0.66625  0.71726  1
 Se  Se2  1  0.33304  0.66607  0.61261  1
 W  W1  1  0.33344  0.66687  0.46852  1
 W  W2  1  0.66642  0.33283  0.66497  1
