CIF file written using JARVIS-Tools package.
data_NClO
_symmetry_space_group_name_H-M  'Pnma'
_cell_length_a       3.93618
_cell_length_b       4.88818
_cell_length_c       11.3053
_cell_angle_alpha    90
_cell_angle_beta     90
_cell_angle_gamma    90

_symmetry_Int_Tables_number  62
_chemical_formula_structural  NClO
_chemical_formula_sum  N4Cl4O4
_cell_volume  217.52276543116338
_cell_formula_units_Z  4
loop_
  _symmetry_equiv_pos_site_id
 _symmetry_equiv_pos_as_xyz
 1  'x, y, z'
loop_
 _atom_site_type_symbol
 _atom_site_label
 _atom_site_symmetry_multiplicity
 _atom_site_fract_x
 _atom_site_fract_y
 _atom_site_fract_z
 _atom_site_fract_occupancy
 Cl  Cl1  1  0.51525  0.25000  0.84749  1
 Cl  Cl2  1  0.01525  0.75000  0.65251  1
 Cl  Cl3  1  0.48475  0.75000  0.15251  1
 Cl  Cl4  1  -0.01525  0.25000  0.34749  1
 N  N1  1  0.70768  0.25000  0.65300  1
 N  N2  1  0.20768  0.75000  0.84700  1
 N  N3  1  0.29232  0.75000  0.34700  1
 N  N4  1  0.79232  0.25000  0.15300  1
 O  O1  1  0.48867  0.25000  0.58799  1
 O  O2  1  0.98867  0.75000  0.91201  1
 O  O3  1  0.51133  0.75000  0.41201  1
 O  O4  1  0.01133  0.25000  0.08799  1
