CIF file written using JARVIS-Tools package.
data_KRu4O8
_symmetry_space_group_name_H-M  'I4/m'
_cell_length_a       3.16758
_cell_length_b       7.16511
_cell_length_c       7.16512
_cell_angle_alpha    87.1994
_cell_angle_beta     77.2296
_cell_angle_gamma    77.2298

_symmetry_Int_Tables_number  87
_chemical_formula_structural  KRu4O8
_chemical_formula_sum  KRu4O8
_cell_volume  154.67482732728573
_cell_formula_units_Z  1
loop_
  _symmetry_equiv_pos_site_id
 _symmetry_equiv_pos_as_xyz
 1  'x, y, z'
loop_
 _atom_site_type_symbol
 _atom_site_label
 _atom_site_symmetry_multiplicity
 _atom_site_fract_x
 _atom_site_fract_y
 _atom_site_fract_z
 _atom_site_fract_occupancy
 K  K1  1  0.50000  0.00000  -0.00000  1
 O  O1  1  0.45303  0.38992  0.70402  1
 O  O2  1  0.15705  0.29598  0.38992  1
 O  O3  1  0.84295  0.70402  0.61008  1
 O  O4  1  0.54697  0.61008  0.29598  1
 O  O5  1  0.85144  0.94976  0.34736  1
 O  O6  1  0.14856  0.05024  0.65264  1
 O  O7  1  0.80120  0.34736  0.05024  1
 O  O8  1  0.19880  0.65264  0.94976  1
 Ru  Ru1  1  0.16785  0.48028  0.18402  1
 Ru  Ru2  1  0.83215  0.51972  0.81598  1
 Ru  Ru3  1  0.35187  0.81598  0.48028  1
 Ru  Ru4  1  0.64813  0.18402  0.51972  1
