CIF file written using JARVIS-Tools package.
data_Pr5Al2Ru3
_symmetry_space_group_name_H-M  'I2_13'
_cell_length_a       8.59837
_cell_length_b       8.59837
_cell_length_c       8.59837
_cell_angle_alpha    109.471
_cell_angle_beta     109.471
_cell_angle_gamma    109.471

_symmetry_Int_Tables_number  199
_chemical_formula_structural  Pr5Al2Ru3
_chemical_formula_sum  Pr0Al4Ru6
_cell_volume  489.35687157330733
_cell_formula_units_Z  2
loop_
  _symmetry_equiv_pos_site_id
 _symmetry_equiv_pos_as_xyz
 1  'x, y, z'
loop_
 _atom_site_type_symbol
 _atom_site_label
 _atom_site_symmetry_multiplicity
 _atom_site_fract_x
 _atom_site_fract_y
 _atom_site_fract_z
 _atom_site_fract_occupancy
 Al  Al1  1  0.00000  0.90815  0.50000  1
 Al  Al2  1  0.90815  0.50000  0.00000  1
 Al  Al3  1  0.50000  -0.00000  0.90815  1
 Al  Al4  1  0.59185  0.59185  0.59185  1
 Pr  Pr1  1  0.25000  0.68431  0.43431  1
 Pr  Pr2  1  0.75000  0.81569  0.06569  1
 Pr  Pr3  1  0.43431  0.25000  0.68431  1
 Pr  Pr4  1  0.06569  0.75000  0.81569  1
 Pr  Pr5  1  -0.00000  0.28616  0.50000  1
 Pr  Pr6  1  0.81569  0.06569  0.75000  1
 Pr  Pr7  1  0.21384  0.21384  0.21384  1
 Pr  Pr8  1  0.50000  0.00000  0.28616  1
 Pr  Pr9  1  0.28616  0.50000  -0.00000  1
 Pr  Pr10  1  0.68431  0.43431  0.25000  1
 Ru  Ru1  1  0.11868  0.86869  0.25000  1
 Ru  Ru2  1  0.63131  0.75000  0.38131  1
 Ru  Ru3  1  0.25000  0.11868  0.86869  1
 Ru  Ru4  1  0.75000  0.38131  0.63131  1
 Ru  Ru5  1  0.86869  0.25000  0.11868  1
 Ru  Ru6  1  0.38131  0.63131  0.75000  1
