CIF file written using JARVIS-Tools package.
data_OsCl4O
_symmetry_space_group_name_H-M  'P2_1/c'
_cell_length_a       9.21161
_cell_length_b       5.55529
_cell_length_c       11.8653
_cell_angle_alpha    90
_cell_angle_beta     109.233
_cell_angle_gamma    90

_symmetry_Int_Tables_number  14
_chemical_formula_structural  OsCl4O
_chemical_formula_sum  Os4Cl6O4
_cell_volume  573.3003591685227
_cell_formula_units_Z  4
loop_
  _symmetry_equiv_pos_site_id
 _symmetry_equiv_pos_as_xyz
 1  'x, y, z'
loop_
 _atom_site_type_symbol
 _atom_site_label
 _atom_site_symmetry_multiplicity
 _atom_site_fract_x
 _atom_site_fract_y
 _atom_site_fract_z
 _atom_site_fract_occupancy
 Cl  Cl1  1  0.27174  0.19047  0.60950  1
 Cl  Cl2  1  0.53851  0.25370  0.41334  1
 Cl  Cl3  1  0.10460  0.31144  0.83777  1
 Cl  Cl4  1  0.10460  0.18856  0.33777  1
 Cl  Cl5  1  0.69978  0.24694  0.68569  1
 Cl  Cl6  1  0.69978  0.25306  0.18569  1
 Cl  Cl7  1  0.30022  0.75306  0.31431  1
 Cl  Cl8  1  0.46149  0.75370  0.08666  1
 Cl  Cl9  1  0.53851  0.24630  0.91334  1
 Cl  Cl10  1  0.72826  0.69047  0.89050  1
 Cl  Cl11  1  0.89540  0.81144  0.66223  1
 Cl  Cl12  1  0.46149  0.74630  0.58666  1
 Cl  Cl13  1  0.89540  0.68856  0.16223  1
 Cl  Cl14  1  0.27174  0.30953  0.10950  1
 Cl  Cl15  1  0.72826  0.80953  0.39050  1
 Cl  Cl16  1  0.30022  0.74694  0.81431  1
 O  O1  1  0.90439  0.29306  0.51459  1
 O  O2  1  0.90439  0.20694  0.01459  1
 O  O3  1  0.09561  0.70694  0.48541  1
 O  O4  1  0.09561  0.79306  0.98541  1
 Os  Os1  1  0.23014  0.89532  0.46860  1
 Os  Os2  1  0.76986  0.10468  0.53140  1
 Os  Os3  1  0.76986  0.39532  0.03140  1
 Os  Os4  1  0.23014  0.60468  0.96860  1
