CIF file written using JARVIS-Tools package.
data_Ge2Pt
_symmetry_space_group_name_H-M  'Pnnm'
_cell_length_a       3.08699
_cell_length_b       5.74369
_cell_length_c       6.27584
_cell_angle_alpha    90
_cell_angle_beta     90
_cell_angle_gamma    90

_symmetry_Int_Tables_number  58
_chemical_formula_structural  Ge2Pt
_chemical_formula_sum  Ge4Pt2
_cell_volume  111.27503883788947
_cell_formula_units_Z  2
loop_
  _symmetry_equiv_pos_site_id
 _symmetry_equiv_pos_as_xyz
 1  'x, y, z'
loop_
 _atom_site_type_symbol
 _atom_site_label
 _atom_site_symmetry_multiplicity
 _atom_site_fract_x
 _atom_site_fract_y
 _atom_site_fract_z
 _atom_site_fract_occupancy
 Ge  Ge1  1  0.00000  0.82788  0.37220  1
 Ge  Ge2  1  0.00000  0.17212  0.62780  1
 Ge  Ge3  1  0.50000  0.32788  0.12780  1
 Ge  Ge4  1  0.50000  0.67212  0.87220  1
 Pt  Pt1  1  0.00000  0.00000  0.00000  1
 Pt  Pt2  1  0.50000  0.50000  0.50000  1
