CIF file written using JARVIS-Tools package.
data_Y3GaO6
_symmetry_space_group_name_H-M  'Cmc2_1'
_cell_length_a       5.43454
_cell_length_b       7.12041
_cell_length_c       7.12041
_cell_angle_alpha    102.84
_cell_angle_beta     90
_cell_angle_gamma    90

_symmetry_Int_Tables_number  36
_chemical_formula_structural  Y3GaO6
_chemical_formula_sum  Y6Ga2O2
_cell_volume  268.6425441303195
_cell_formula_units_Z  2
loop_
  _symmetry_equiv_pos_site_id
 _symmetry_equiv_pos_as_xyz
 1  'x, y, z'
loop_
 _atom_site_type_symbol
 _atom_site_label
 _atom_site_symmetry_multiplicity
 _atom_site_fract_x
 _atom_site_fract_y
 _atom_site_fract_z
 _atom_site_fract_occupancy
 Ga  Ga1  1  0.50153  0.80688  0.19312  1
 Ga  Ga2  1  0.00153  0.19312  0.80688  1
 O  O1  1  0.32069  0.57753  0.10562  1
 O  O2  1  0.80489  0.35657  0.32257  1
 O  O3  1  0.80489  0.67743  0.64343  1
 O  O4  1  0.82069  0.10562  0.57753  1
 O  O5  1  0.30489  0.64343  0.67743  1
 O  O6  1  0.33972  0.21574  0.78426  1
 O  O7  1  0.30489  0.32257  0.35657  1
 O  O8  1  0.82069  0.42247  0.89438  1
 O  O9  1  0.83972  0.78426  0.21574  1
 O  O10  1  0.32069  0.89438  0.42247  1
 O  O11  1  0.35539  0.96141  0.03859  1
 O  O12  1  0.85539  0.03859  0.96141  1
 Y  Y1  1  0.03195  0.08800  0.29841  1
 Y  Y2  1  0.03195  0.70159  0.91200  1
 Y  Y3  1  0.57909  0.39773  0.60227  1
 Y  Y4  1  0.07909  0.60227  0.39773  1
 Y  Y5  1  0.53195  0.91200  0.70159  1
 Y  Y6  1  0.53195  0.29841  0.08800  1
