CIF file written using JARVIS-Tools package.
data_Zn2Sb3O8
_symmetry_space_group_name_H-M  'C2/m'
_cell_length_a       5.65194
_cell_length_b       6.68466
_cell_length_c       6.7713
_cell_angle_alpha    119.578
_cell_angle_beta     121.499
_cell_angle_gamma    90

_symmetry_Int_Tables_number  12
_chemical_formula_structural  Zn2Sb3O8
_chemical_formula_sum  Zn2Sb3O8
_cell_volume  177.8644000935969
_cell_formula_units_Z  1
loop_
  _symmetry_equiv_pos_site_id
 _symmetry_equiv_pos_as_xyz
 1  'x, y, z'
loop_
 _atom_site_type_symbol
 _atom_site_label
 _atom_site_symmetry_multiplicity
 _atom_site_fract_x
 _atom_site_fract_y
 _atom_site_fract_z
 _atom_site_fract_occupancy
 O  O1  1  0.00080  0.38182  0.76363  1
 O  O2  1  0.99920  0.61818  0.23637  1
 O  O3  1  0.98070  0.88271  0.76542  1
 O  O4  1  0.01930  0.11729  0.23458  1
 O  O5  1  0.44576  0.36593  0.21741  1
 O  O6  1  0.44576  0.85148  0.21741  1
 O  O7  1  0.55424  0.14852  0.78259  1
 O  O8  1  0.55424  0.63407  0.78259  1
 Sb  Sb1  1  0.50000  1.00000  0.00000  1
 Sb  Sb2  1  0.00000  0.73331  -0.00000  1
 Sb  Sb3  1  -0.00000  0.26669  0.00000  1
 Zn  Zn1  1  0.69374  0.66869  0.33738  1
 Zn  Zn2  1  0.30626  0.33131  0.66262  1
