CIF file written using JARVIS-Tools package.
data_ScSi7Rh3
_symmetry_space_group_name_H-M  'R-3c'
_cell_length_a       7.93615
_cell_length_b       7.93615
_cell_length_c       7.93615
_cell_angle_alpha    57.259
_cell_angle_beta     57.259
_cell_angle_gamma    57.259

_symmetry_Int_Tables_number  167
_chemical_formula_structural  ScSi7Rh3
_chemical_formula_sum  Sc2Si4Rh6
_cell_volume  331.1299720517085
_cell_formula_units_Z  2
loop_
  _symmetry_equiv_pos_site_id
 _symmetry_equiv_pos_as_xyz
 1  'x, y, z'
loop_
 _atom_site_type_symbol
 _atom_site_label
 _atom_site_symmetry_multiplicity
 _atom_site_fract_x
 _atom_site_fract_y
 _atom_site_fract_z
 _atom_site_fract_occupancy
 Rh  Rh1  1  0.07164  0.75000  0.42836  1
 Rh  Rh2  1  0.25000  0.57164  0.92836  1
 Rh  Rh3  1  0.92836  0.25000  0.57164  1
 Rh  Rh4  1  0.42836  0.07164  0.75000  1
 Rh  Rh5  1  0.75000  0.42836  0.07164  1
 Rh  Rh6  1  0.57164  0.92836  0.25000  1
 Sc  Sc1  1  0.50000  0.50000  0.50000  1
 Sc  Sc2  1  0.00000  0.00000  0.00000  1
 Si  Si1  1  0.56808  0.17232  0.35127  1
 Si  Si2  1  0.17232  0.35127  0.56808  1
 Si  Si3  1  0.64873  0.43192  0.82768  1
 Si  Si4  1  0.32768  0.93192  0.14873  1
 Si  Si5  1  0.67232  0.06808  0.85127  1
 Si  Si6  1  0.85127  0.67232  0.06808  1
 Si  Si7  1  0.06808  0.85127  0.67232  1
 Si  Si8  1  0.25000  0.25000  0.25000  1
 Si  Si9  1  0.43192  0.82768  0.64873  1
 Si  Si10  1  0.14873  0.32768  0.93192  1
 Si  Si11  1  0.93192  0.14873  0.32768  1
 Si  Si12  1  0.75000  0.75000  0.75000  1
 Si  Si13  1  0.35127  0.56808  0.17232  1
 Si  Si14  1  0.82768  0.64873  0.43192  1
