CIF file written using JARVIS-Tools package.
data_Ca3CrN3
_symmetry_space_group_name_H-M  'Cmcm'
_cell_length_a       5.02817
_cell_length_b       6.6112
_cell_length_c       6.61121
_cell_angle_alpha    101.103
_cell_angle_beta     90
_cell_angle_gamma    90

_symmetry_Int_Tables_number  63
_chemical_formula_structural  Ca3CrN3
_chemical_formula_sum  Ca6Cr2N6
_cell_volume  215.65833555234238
_cell_formula_units_Z  2
loop_
  _symmetry_equiv_pos_site_id
 _symmetry_equiv_pos_as_xyz
 1  'x, y, z'
loop_
 _atom_site_type_symbol
 _atom_site_label
 _atom_site_symmetry_multiplicity
 _atom_site_fract_x
 _atom_site_fract_y
 _atom_site_fract_z
 _atom_site_fract_occupancy
 Ca  Ca1  1  0.25000  0.40460  0.16962  1
 Ca  Ca2  1  0.75000  0.10769  0.89231  1
 Ca  Ca3  1  0.75000  0.16962  0.40460  1
 Ca  Ca4  1  0.25000  0.89231  0.10769  1
 Ca  Ca5  1  0.75000  0.59540  0.83038  1
 Ca  Ca6  1  0.25000  0.83038  0.59540  1
 Cr  Cr1  1  0.75000  0.69577  0.30423  1
 Cr  Cr2  1  0.25000  0.30423  0.69577  1
 N  N1  1  0.75000  0.43292  0.18099  1
 N  N2  1  0.25000  0.12676  0.87324  1
 N  N3  1  0.75000  0.87324  0.12676  1
 N  N4  1  0.25000  0.18099  0.43292  1
 N  N5  1  0.25000  0.56708  0.81901  1
 N  N6  1  0.75000  0.81901  0.56708  1
