CIF file written using JARVIS-Tools package.
data_Mo5As4
_symmetry_space_group_name_H-M  'I4/m'
_cell_length_a       3.18485
_cell_length_b       6.91327
_cell_length_c       6.91327
_cell_angle_alpha    86.9585
_cell_angle_beta     76.6826
_cell_angle_gamma    76.6827

_symmetry_Int_Tables_number  87
_chemical_formula_structural  Mo5As4
_chemical_formula_sum  Mo5As4
_cell_volume  144.13852463649258
_cell_formula_units_Z  1
loop_
  _symmetry_equiv_pos_site_id
 _symmetry_equiv_pos_as_xyz
 1  'x, y, z'
loop_
 _atom_site_type_symbol
 _atom_site_label
 _atom_site_symmetry_multiplicity
 _atom_site_fract_x
 _atom_site_fract_y
 _atom_site_fract_z
 _atom_site_fract_occupancy
 As  As1  1  0.67363  0.68445  0.96828  1
 As  As2  1  0.32637  0.31555  0.03172  1
 As  As3  1  0.35809  0.96828  0.31555  1
 As  As4  1  0.64191  0.03172  0.68445  1
 Mo  Mo1  1  0.94859  0.39512  0.70769  1
 Mo  Mo2  1  0.00000  0.00000  0.00000  1
 Mo  Mo3  1  0.34371  0.70769  0.60488  1
 Mo  Mo4  1  0.65629  0.29231  0.39512  1
 Mo  Mo5  1  0.05141  0.60488  0.29231  1
