CIF file written using JARVIS-Tools package.
data_YB2C
_symmetry_space_group_name_H-M  'P4_2/mbc'
_cell_length_a       6.79225
_cell_length_b       6.79225
_cell_length_c       7.48918
_cell_angle_alpha    90
_cell_angle_beta     90
_cell_angle_gamma    90

_symmetry_Int_Tables_number  135
_chemical_formula_structural  YB2C
_chemical_formula_sum  Y8B6C8
_cell_volume  345.51088979860793
_cell_formula_units_Z  8
loop_
  _symmetry_equiv_pos_site_id
 _symmetry_equiv_pos_as_xyz
 1  'x, y, z'
loop_
 _atom_site_type_symbol
 _atom_site_label
 _atom_site_symmetry_multiplicity
 _atom_site_fract_x
 _atom_site_fract_y
 _atom_site_fract_z
 _atom_site_fract_occupancy
 B  B1  1  0.09701  0.59484  0.00000  1
 B  B2  1  0.65216  0.46555  0.00000  1
 B  B3  1  0.03445  0.84784  0.50000  1
 B  B4  1  0.96555  0.15216  0.50000  1
 B  B5  1  0.46555  0.34784  0.50000  1
 B  B6  1  0.53445  0.65216  0.50000  1
 B  B7  1  0.40516  0.09701  0.50000  1
 B  B8  1  0.59484  0.90299  0.50000  1
 B  B9  1  0.59701  0.90516  0.00000  1
 B  B10  1  0.40299  0.09484  0.00000  1
 B  B11  1  0.90299  0.40516  0.00000  1
 B  B12  1  0.09484  0.59701  0.50000  1
 B  B13  1  0.90516  0.40299  0.50000  1
 B  B14  1  0.15216  0.03445  0.00000  1
 B  B15  1  0.34784  0.53445  0.00000  1
 B  B16  1  0.84784  0.96555  0.00000  1
 C  C1  1  0.17721  0.04068  0.50000  1
 C  C2  1  0.67721  0.45932  0.50000  1
 C  C3  1  0.32279  0.54068  0.50000  1
 C  C4  1  0.95932  0.17721  0.00000  1
 C  C5  1  0.04068  0.82279  0.00000  1
 C  C6  1  0.54068  0.67721  0.00000  1
 C  C7  1  0.45932  0.32279  0.00000  1
 C  C8  1  0.82279  0.95932  0.50000  1
 Y  Y1  1  0.30928  0.80928  0.25000  1
 Y  Y2  1  0.19072  0.30928  0.75000  1
 Y  Y3  1  0.80928  0.69072  0.75000  1
 Y  Y4  1  0.69072  0.19072  0.25000  1
 Y  Y5  1  0.69072  0.19072  0.75000  1
 Y  Y6  1  0.80928  0.69072  0.25000  1
 Y  Y7  1  0.19072  0.30928  0.25000  1
 Y  Y8  1  0.30928  0.80928  0.75000  1
