CIF file written using JARVIS-Tools package.
data_CuSbMo2O8
_symmetry_space_group_name_H-M  'C2/c'
_cell_length_a       4.91513
_cell_length_b       5.59602
_cell_length_c       11.2443
_cell_angle_alpha    100.742
_cell_angle_beta     102.623
_cell_angle_gamma    90.0002

_symmetry_Int_Tables_number  15
_chemical_formula_structural  CuSbMo2O8
_chemical_formula_sum  Cu2Sb2Mo4O6
_cell_volume  296.2440196936814
_cell_formula_units_Z  2
loop_
  _symmetry_equiv_pos_site_id
 _symmetry_equiv_pos_as_xyz
 1  'x, y, z'
loop_
 _atom_site_type_symbol
 _atom_site_label
 _atom_site_symmetry_multiplicity
 _atom_site_fract_x
 _atom_site_fract_y
 _atom_site_fract_z
 _atom_site_fract_occupancy
 Cu  Cu1  1  0.00000  0.50000  0.50000  1
 Cu  Cu2  1  0.50000  0.00000  0.50000  1
 Mo  Mo1  1  0.60537  0.71977  0.72543  1
 Mo  Mo2  1  0.87992  0.78023  0.27457  1
 Mo  Mo3  1  0.39463  0.28023  0.27457  1
 Mo  Mo4  1  0.12008  0.21977  0.72543  1
 O  O1  1  0.20227  0.96030  0.32265  1
 O  O2  1  0.35946  0.01243  0.79277  1
 O  O3  1  0.78827  0.78920  0.42082  1
 O  O4  1  0.64054  0.98757  0.20723  1
 O  O5  1  0.03776  0.37949  0.89516  1
 O  O6  1  0.87962  0.53970  0.67735  1
 O  O7  1  0.14260  0.12051  0.10484  1
 O  O8  1  0.56668  0.48757  0.20722  1
 O  O9  1  0.36747  0.71080  0.57918  1
 O  O10  1  0.12038  0.46030  0.32265  1
 O  O11  1  0.79773  0.03970  0.67735  1
 O  O12  1  0.63253  0.28920  0.42082  1
 O  O13  1  0.43332  0.51243  0.79278  1
 O  O14  1  0.21173  0.21080  0.57918  1
 O  O15  1  0.96224  0.62051  0.10484  1
 O  O16  1  0.85740  0.87949  0.89516  1
 Sb  Sb1  1  0.80171  0.25000  0.00000  1
 Sb  Sb2  1  0.19829  0.75000  -0.00000  1
