CIF file written using JARVIS-Tools package.
data_ThZr2H7
_symmetry_space_group_name_H-M  'Fd-3m'
_cell_length_a       6.6181
_cell_length_b       6.6181
_cell_length_c       6.6181
_cell_angle_alpha    60
_cell_angle_beta     60
_cell_angle_gamma    60

_symmetry_Int_Tables_number  227
_chemical_formula_structural  ThZr2H7
_chemical_formula_sum  Th2Zr4H4
_cell_volume  204.96716160034893
_cell_formula_units_Z  2
loop_
  _symmetry_equiv_pos_site_id
 _symmetry_equiv_pos_as_xyz
 1  'x, y, z'
loop_
 _atom_site_type_symbol
 _atom_site_label
 _atom_site_symmetry_multiplicity
 _atom_site_fract_x
 _atom_site_fract_y
 _atom_site_fract_z
 _atom_site_fract_occupancy
 H  H1  1  0.49765  0.49765  0.00235  1
 H  H2  1  0.49765  0.00235  0.00235  1
 H  H3  1  0.75235  0.24765  0.75235  1
 H  H4  1  0.75235  0.75235  0.24765  1
 H  H5  1  0.24765  0.24765  0.75235  1
 H  H6  1  0.24765  0.75235  0.24765  1
 H  H7  1  0.50000  0.50000  0.50000  1
 H  H8  1  0.75000  0.75000  0.75000  1
 H  H9  1  0.24765  0.75235  0.75235  1
 H  H10  1  0.00235  0.00235  0.49765  1
 H  H11  1  0.00235  0.49765  0.49765  1
 H  H12  1  0.00235  0.49765  0.00235  1
 H  H13  1  0.49765  0.00235  0.49765  1
 H  H14  1  0.75235  0.24765  0.24765  1
 Th  Th1  1  0.25000  0.25000  0.25000  1
 Th  Th2  1  0.00000  0.00000  0.00000  1
 Zr  Zr1  1  0.62500  0.12500  0.62500  1
 Zr  Zr2  1  0.12500  0.62500  0.62500  1
 Zr  Zr3  1  0.62500  0.62500  0.12500  1
 Zr  Zr4  1  0.62500  0.62500  0.62500  1
