CIF file written using JARVIS-Tools package.
data_Ce2CdPt2
_symmetry_space_group_name_H-M  'P4/mbm'
_cell_length_a       7.86288
_cell_length_b       7.86288
_cell_length_c       3.73401
_cell_angle_alpha    90
_cell_angle_beta     90
_cell_angle_gamma    90

_symmetry_Int_Tables_number  127
_chemical_formula_structural  Ce2CdPt2
_chemical_formula_sum  Ce4Cd2Pt4
_cell_volume  230.8546292880917
_cell_formula_units_Z  2
loop_
  _symmetry_equiv_pos_site_id
 _symmetry_equiv_pos_as_xyz
 1  'x, y, z'
loop_
 _atom_site_type_symbol
 _atom_site_label
 _atom_site_symmetry_multiplicity
 _atom_site_fract_x
 _atom_site_fract_y
 _atom_site_fract_z
 _atom_site_fract_occupancy
 Cd  Cd1  1  0.50000  0.50000  0.00000  1
 Cd  Cd2  1  0.00000  0.00000  0.00000  1
 Ce  Ce1  1  0.17032  0.32968  0.50000  1
 Ce  Ce2  1  0.32968  0.82968  0.50000  1
 Ce  Ce3  1  0.82968  0.67032  0.50000  1
 Ce  Ce4  1  0.67032  0.17032  0.50000  1
 Pt  Pt1  1  0.63205  0.86795  0.00000  1
 Pt  Pt2  1  0.13205  0.63205  0.00000  1
 Pt  Pt3  1  0.86795  0.36795  0.00000  1
 Pt  Pt4  1  0.36795  0.13205  0.00000  1
