CIF file written using JARVIS-Tools package.
data_Ge3B
_symmetry_space_group_name_H-M  'P6_3/mmc'
_cell_length_a       7.14134
_cell_length_b       7.14134
_cell_length_c       3.21166
_cell_angle_alpha    90
_cell_angle_beta     90
_cell_angle_gamma    120

_symmetry_Int_Tables_number  194
_chemical_formula_structural  Ge3B
_chemical_formula_sum  Ge6B2
_cell_volume  141.84666263339773
_cell_formula_units_Z  2
loop_
  _symmetry_equiv_pos_site_id
 _symmetry_equiv_pos_as_xyz
 1  'x, y, z'
loop_
 _atom_site_type_symbol
 _atom_site_label
 _atom_site_symmetry_multiplicity
 _atom_site_fract_x
 _atom_site_fract_y
 _atom_site_fract_z
 _atom_site_fract_occupancy
 B  B1  1  0.33333  0.66667  0.75000  1
 B  B2  1  0.66667  0.33333  0.25000  1
 Ge  Ge1  1  0.20235  0.40470  0.25000  1
 Ge  Ge2  1  0.59530  0.79765  0.25000  1
 Ge  Ge3  1  0.20235  0.79765  0.25000  1
 Ge  Ge4  1  0.79765  0.59530  0.75000  1
 Ge  Ge5  1  0.40470  0.20235  0.75000  1
 Ge  Ge6  1  0.79765  0.20235  0.75000  1
