CIF file written using JARVIS-Tools package.
data_Pr
_symmetry_space_group_name_H-M  'Fm-3m'
_cell_length_a       3.68561
_cell_length_b       3.68561
_cell_length_c       18.0519
_cell_angle_alpha    90
_cell_angle_beta     90
_cell_angle_gamma    120

_symmetry_Int_Tables_number  225
_chemical_formula_structural  Pr
_chemical_formula_sum  Pr6
_cell_volume  212.3592017405262
_cell_formula_units_Z  6
loop_
  _symmetry_equiv_pos_site_id
 _symmetry_equiv_pos_as_xyz
 1  'x, y, z'
loop_
 _atom_site_type_symbol
 _atom_site_label
 _atom_site_symmetry_multiplicity
 _atom_site_fract_x
 _atom_site_fract_y
 _atom_site_fract_z
 _atom_site_fract_occupancy
 Pr  Pr1  1  0.99977  0.66650  0.91667  1
 Pr  Pr2  1  0.33350  0.33327  0.25000  1
 Pr  Pr3  1  0.66673  0.00023  0.58333  1
 Pr  Pr4  1  0.00023  0.66673  0.41667  1
 Pr  Pr5  1  0.66650  0.99977  0.08333  1
 Pr  Pr6  1  0.33327  0.33350  0.75000  1
