CIF file written using JARVIS-Tools package.
data_SmCu2O4
_symmetry_space_group_name_H-M  'I4_1/a'
_cell_length_a       5.765
_cell_length_b       5.76494
_cell_length_c       6.34704
_cell_angle_alpha    117.006
_cell_angle_beta     117.006
_cell_angle_gamma    90.0074

_symmetry_Int_Tables_number  88
_chemical_formula_structural  SmCu2O4
_chemical_formula_sum  Sm2Cu4O8
_cell_volume  161.6925896578248
_cell_formula_units_Z  2
loop_
  _symmetry_equiv_pos_site_id
 _symmetry_equiv_pos_as_xyz
 1  'x, y, z'
loop_
 _atom_site_type_symbol
 _atom_site_label
 _atom_site_symmetry_multiplicity
 _atom_site_fract_x
 _atom_site_fract_y
 _atom_site_fract_z
 _atom_site_fract_occupancy
 Cu  Cu1  1  0.50000  -0.00000  0.00000  1
 Cu  Cu2  1  0.50000  0.50000  0.00000  1
 Cu  Cu3  1  0.00000  0.50000  0.50000  1
 Cu  Cu4  1  0.50000  0.50000  0.50000  1
 O  O1  1  0.71228  0.53120  0.85254  1
 O  O2  1  0.14026  0.82134  0.85254  1
 O  O3  1  0.28772  0.46880  0.14746  1
 O  O4  1  0.85974  0.17866  0.14746  1
 O  O5  1  0.53123  0.14028  0.35254  1
 O  O6  1  0.82130  0.71226  0.35254  1
 O  O7  1  0.17870  0.28774  0.64746  1
 O  O8  1  0.46877  0.85972  0.64746  1
 Sm  Sm1  1  0.87500  0.12500  0.75000  1
 Sm  Sm2  1  0.12500  0.87500  0.25000  1
