CIF file written using JARVIS-Tools package.
data_Na3Sb3As2O14
_symmetry_space_group_name_H-M  'P2_1/c'
_cell_length_a       6.52845
_cell_length_b       7.3495
_cell_length_c       12.6553
_cell_angle_alpha    90
_cell_angle_beta     107.447
_cell_angle_gamma    90

_symmetry_Int_Tables_number  14
_chemical_formula_structural  Na3Sb3As2O14
_chemical_formula_sum  Na6Sb6As4O28
_cell_volume  579.2772306036182
_cell_formula_units_Z  2
loop_
  _symmetry_equiv_pos_site_id
 _symmetry_equiv_pos_as_xyz
 1  'x, y, z'
loop_
 _atom_site_type_symbol
 _atom_site_label
 _atom_site_symmetry_multiplicity
 _atom_site_fract_x
 _atom_site_fract_y
 _atom_site_fract_z
 _atom_site_fract_occupancy
 As  As1  1  0.58249  0.23565  0.33801  1
 As  As2  1  0.41751  0.73565  0.16199  1
 As  As3  1  0.41751  0.76435  0.66199  1
 As  As4  1  0.58249  0.26435  0.83801  1
 Na  Na1  1  0.46184  0.21329  0.06672  1
 Na  Na2  1  0.00000  0.00000  0.00000  1
 Na  Na3  1  0.53816  0.71329  0.43328  1
 Na  Na4  1  0.53816  0.78671  0.93328  1
 Na  Na5  1  0.46184  0.28671  0.56672  1
 Na  Na6  1  0.00000  0.50000  0.50000  1
 O  O1  1  0.39177  0.90414  0.07037  1
 O  O2  1  0.03859  0.79447  0.40732  1
 O  O3  1  0.67167  0.68681  0.24840  1
 O  O4  1  0.32833  0.31319  0.75160  1
 O  O5  1  0.89497  0.81034  0.58388  1
 O  O6  1  0.39177  0.59586  0.57037  1
 O  O7  1  0.68226  0.02953  0.40430  1
 O  O8  1  0.92528  0.99425  0.19678  1
 O  O9  1  0.68226  0.47047  0.90430  1
 O  O10  1  0.10503  0.18966  0.41612  1
 O  O11  1  0.67167  0.81319  0.74840  1
 O  O12  1  0.60823  0.09586  0.92963  1
 O  O13  1  0.70501  0.28019  0.23666  1
 O  O14  1  0.31774  0.52953  0.09570  1
 O  O15  1  0.31774  0.97047  0.59570  1
 O  O16  1  0.96141  0.20553  0.59268  1
 O  O17  1  0.10503  0.31034  0.91612  1
 O  O18  1  0.89497  0.68966  0.08388  1
 O  O19  1  0.07472  0.49425  0.30322  1
 O  O20  1  0.03859  0.70553  0.90732  1
 O  O21  1  0.92528  0.50575  0.69678  1
 O  O22  1  0.96141  0.29447  0.09268  1
 O  O23  1  0.07472  0.00575  0.80322  1
 O  O24  1  0.29499  0.78019  0.26334  1
 O  O25  1  0.70501  0.21981  0.73666  1
 O  O26  1  0.60823  0.40414  0.42963  1
 O  O27  1  0.29499  0.71981  0.76334  1
 O  O28  1  0.32833  0.18681  0.25160  1
 Sb  Sb1  1  0.00000  0.50000  0.00000  1
 Sb  Sb2  1  0.00000  0.00000  0.50000  1
 Sb  Sb3  1  0.97713  0.74079  0.24750  1
 Sb  Sb4  1  0.97713  0.75921  0.74750  1
 Sb  Sb5  1  0.02287  0.25921  0.75250  1
 Sb  Sb6  1  0.02287  0.24079  0.25250  1
