CIF file written using JARVIS-Tools package.
data_Te2Mo3S4
_symmetry_space_group_name_H-M  'Cmcm'
_cell_length_a       3.31951
_cell_length_b       13.6011
_cell_length_c       8.73562
_cell_angle_alpha    89.9997
_cell_angle_beta     79.0451
_cell_angle_gamma    90.0005

_symmetry_Int_Tables_number  63
_chemical_formula_structural  Te2Mo3S4
_chemical_formula_sum  Te4Mo6S8
_cell_volume  387.2177001889458
_cell_formula_units_Z  2
loop_
  _symmetry_equiv_pos_site_id
 _symmetry_equiv_pos_as_xyz
 1  'x, y, z'
loop_
 _atom_site_type_symbol
 _atom_site_label
 _atom_site_symmetry_multiplicity
 _atom_site_fract_x
 _atom_site_fract_y
 _atom_site_fract_z
 _atom_site_fract_occupancy
 Mo  Mo1  1  0.57536  0.25000  0.84929  1
 Mo  Mo2  1  0.23371  0.25000  0.53258  1
 Mo  Mo3  1  0.43917  0.75000  0.12168  1
 Mo  Mo4  1  0.89416  0.25000  0.21166  1
 Mo  Mo5  1  0.75798  0.75000  0.48404  1
 Mo  Mo6  1  0.09963  0.75000  0.80076  1
 S  S1  1  0.20673  0.63571  0.58651  1
 S  S2  1  0.20674  0.86429  0.58651  1
 S  S3  1  0.12660  0.36429  0.74682  1
 S  S4  1  0.78577  0.13637  0.42844  1
 S  S5  1  0.54755  0.63638  0.90489  1
 S  S6  1  0.78578  0.36362  0.42844  1
 S  S7  1  0.12659  0.13571  0.74683  1
 S  S8  1  0.54756  0.86363  0.90489  1
 Te  Te1  1  0.87534  0.88661  0.24932  1
 Te  Te2  1  0.45800  0.38661  0.08401  1
 Te  Te3  1  0.45799  0.11339  0.08401  1
 Te  Te4  1  0.87533  0.61339  0.24933  1
