CIF file written using JARVIS-Tools package.
data_Cu2SnSe3
_symmetry_space_group_name_H-M  'Cc'
_cell_length_a       7.10199
_cell_length_b       7.05635
_cell_length_c       7.05635
_cell_angle_alpha    119.932
_cell_angle_beta     99.7077
_cell_angle_gamma    99.7077

_symmetry_Int_Tables_number  9
_chemical_formula_structural  Cu2SnSe3
_chemical_formula_sum  Cu4Sn2Se6
_cell_volume  288.541645464237
_cell_formula_units_Z  2
loop_
  _symmetry_equiv_pos_site_id
 _symmetry_equiv_pos_as_xyz
 1  'x, y, z'
loop_
 _atom_site_type_symbol
 _atom_site_label
 _atom_site_symmetry_multiplicity
 _atom_site_fract_x
 _atom_site_fract_y
 _atom_site_fract_z
 _atom_site_fract_occupancy
 Cu  Cu1  1  0.38114  0.38354  0.88810  1
 Cu  Cu2  1  0.88114  0.88810  0.38354  1
 Cu  Cu3  1  0.87968  0.20044  0.03753  1
 Cu  Cu4  1  0.37968  0.03753  0.20044  1
 Se  Se1  1  0.99442  0.58292  0.39608  1
 Se  Se2  1  0.51968  0.76144  0.23573  1
 Se  Se3  1  0.01838  0.94905  0.11861  1
 Se  Se4  1  0.49442  0.39608  0.58292  1
 Se  Se5  1  0.51838  0.11861  0.94905  1
 Se  Se6  1  0.01968  0.23573  0.76144  1
 Sn  Sn1  1  0.89669  0.55062  0.73394  1
 Sn  Sn2  1  0.39669  0.73394  0.55062  1
