CIF file written using JARVIS-Tools package.
data_Sr3Fe2Cu2S2O5
_symmetry_space_group_name_H-M  'I4/mmm'
_cell_length_a       3.89118
_cell_length_b       3.89118
_cell_length_c       13.5303
_cell_angle_alpha    98.2675
_cell_angle_beta     98.2675
_cell_angle_gamma    90

_symmetry_Int_Tables_number  139
_chemical_formula_structural  Sr3Fe2Cu2S2O5
_chemical_formula_sum  Sr3Fe2Cu2S2O5
_cell_volume  200.58611343490043
_cell_formula_units_Z  1
loop_
  _symmetry_equiv_pos_site_id
 _symmetry_equiv_pos_as_xyz
 1  'x, y, z'
loop_
 _atom_site_type_symbol
 _atom_site_label
 _atom_site_symmetry_multiplicity
 _atom_site_fract_x
 _atom_site_fract_y
 _atom_site_fract_z
 _atom_site_fract_occupancy
 Cu  Cu1  1  0.25000  0.75000  0.50000  1
 Cu  Cu2  1  0.75000  0.25000  0.50000  1
 Fe  Fe1  1  0.07205  0.07205  0.14410  1
 Fe  Fe2  1  0.92795  0.92795  0.85590  1
 O  O1  1  0.07937  0.57937  0.15874  1
 O  O2  1  0.57937  0.07937  0.15874  1
 O  O3  1  0.92063  0.42063  0.84126  1
 O  O4  1  0.42063  0.92063  0.84126  1
 O  O5  1  0.00000  0.00000  0.00000  1
 S  S1  1  0.19539  0.19539  0.39078  1
 S  S2  1  0.80461  0.80461  0.60922  1
 Sr  Sr1  1  0.50000  0.50000  0.00000  1
 Sr  Sr2  1  0.64033  0.64033  0.28067  1
 Sr  Sr3  1  0.35967  0.35967  0.71933  1
