CIF file written using JARVIS-Tools package.
data_CdI2
_symmetry_space_group_name_H-M  'P6_3mc'
_cell_length_a       4.28652
_cell_length_b       4.28652
_cell_length_c       55.0334
_cell_angle_alpha    90
_cell_angle_beta     90
_cell_angle_gamma    120

_symmetry_Int_Tables_number  186
_chemical_formula_structural  CdI2
_chemical_formula_sum  Cd8I6
_cell_volume  875.724918696947
_cell_formula_units_Z  8
loop_
  _symmetry_equiv_pos_site_id
 _symmetry_equiv_pos_as_xyz
 1  'x, y, z'
loop_
 _atom_site_type_symbol
 _atom_site_label
 _atom_site_symmetry_multiplicity
 _atom_site_fract_x
 _atom_site_fract_y
 _atom_site_fract_z
 _atom_site_fract_occupancy
 Cd  Cd1  1  0.66667  0.33333  0.90622  1
 Cd  Cd2  1  0.66667  0.33333  0.78127  1
 Cd  Cd3  1  0.66667  0.33333  0.53124  1
 Cd  Cd4  1  0.66667  0.33333  0.15624  1
 Cd  Cd5  1  0.33333  0.66667  0.03124  1
 Cd  Cd6  1  0.33333  0.66667  0.40622  1
 Cd  Cd7  1  0.33333  0.66667  0.65624  1
 Cd  Cd8  1  0.33333  0.66667  0.28127  1
 I  I1  1  0.33333  0.66667  0.74977  1
 I  I2  1  0.33333  0.66667  0.49974  1
 I  I3  1  0.00000  0.00000  0.43775  1
 I  I4  1  0.00000  0.00000  0.56276  1
 I  I5  1  0.00000  0.00000  0.18776  1
 I  I6  1  0.00000  0.00000  0.31278  1
 I  I7  1  0.33333  0.66667  0.12474  1
 I  I8  1  0.33333  0.66667  0.87473  1
 I  I9  1  0.66667  0.33333  -0.00026  1
 I  I10  1  0.00000  0.00000  0.06276  1
 I  I11  1  0.00000  0.00000  0.93775  1
 I  I12  1  0.00000  0.00000  0.81278  1
 I  I13  1  0.66667  0.33333  0.37473  1
 I  I14  1  0.66667  0.33333  0.24977  1
 I  I15  1  0.66667  0.33333  0.62474  1
 I  I16  1  0.00000  0.00000  0.68776  1
