CIF file written using JARVIS-Tools package.
data_NaYF4
_symmetry_space_group_name_H-M  'I4_1/amd'
_cell_length_a       7.69137
_cell_length_b       10.1444
_cell_length_c       6.61515
_cell_angle_alpha    29.2524
_cell_angle_beta     54.4547
_cell_angle_gamma    40.6954

_symmetry_Int_Tables_number  141
_chemical_formula_structural  NaYF4
_chemical_formula_sum  Na2Y2F8
_cell_volume  159.16661035210683
_cell_formula_units_Z  2
loop_
  _symmetry_equiv_pos_site_id
 _symmetry_equiv_pos_as_xyz
 1  'x, y, z'
loop_
 _atom_site_type_symbol
 _atom_site_label
 _atom_site_symmetry_multiplicity
 _atom_site_fract_x
 _atom_site_fract_y
 _atom_site_fract_z
 _atom_site_fract_occupancy
 F  F1  1  0.37498  0.98283  0.76718  1
 F  F2  1  0.10780  0.51717  0.73284  1
 F  F3  1  0.37502  0.51717  0.23282  1
 F  F4  1  0.87502  0.01717  0.73284  1
 F  F5  1  0.10782  0.01717  0.23282  1
 F  F6  1  0.87498  0.48283  0.26716  1
 F  F7  1  0.64218  0.48283  0.76718  1
 F  F8  1  0.64220  0.98283  0.26716  1
 Na  Na1  1  0.50000  0.00000  -0.00000  1
 Na  Na2  1  0.25000  0.50000  0.00000  1
 Y  Y1  1  -0.00001  0.00000  -0.00000  1
 Y  Y2  1  0.75001  0.50000  0.00000  1
