CIF file written using JARVIS-Tools package.
data_Li8Al3Si5
_symmetry_space_group_name_H-M  'P-43m'
_cell_length_a       6.26843
_cell_length_b       6.26843
_cell_length_c       6.26843
_cell_angle_alpha    90
_cell_angle_beta     90
_cell_angle_gamma    90

_symmetry_Int_Tables_number  215
_chemical_formula_structural  Li8Al3Si5
_chemical_formula_sum  Li8Al3Si5
_cell_volume  246.3070587672698
_cell_formula_units_Z  1
loop_
  _symmetry_equiv_pos_site_id
 _symmetry_equiv_pos_as_xyz
 1  'x, y, z'
loop_
 _atom_site_type_symbol
 _atom_site_label
 _atom_site_symmetry_multiplicity
 _atom_site_fract_x
 _atom_site_fract_y
 _atom_site_fract_z
 _atom_site_fract_occupancy
 Al  Al1  1  0.00000  0.00000  0.50000  1
 Al  Al2  1  0.00000  0.50000  0.00000  1
 Al  Al3  1  0.50000  0.00000  0.00000  1
 Li  Li1  1  0.25604  0.74396  0.25604  1
 Li  Li2  1  0.74396  0.25604  0.25604  1
 Li  Li3  1  0.25604  0.25604  0.74396  1
 Li  Li4  1  0.00000  0.00000  0.00000  1
 Li  Li5  1  0.00000  0.50000  0.50000  1
 Li  Li6  1  0.74396  0.74396  0.74396  1
 Li  Li7  1  0.50000  0.00000  0.50000  1
 Li  Li8  1  0.50000  0.50000  0.00000  1
 Si  Si1  1  0.24944  0.24944  0.24944  1
 Si  Si2  1  0.50000  0.50000  0.50000  1
 Si  Si3  1  0.75056  0.24944  0.75056  1
 Si  Si4  1  0.75056  0.75056  0.24944  1
 Si  Si5  1  0.24944  0.75056  0.75056  1
