CIF file written using JARVIS-Tools package.
data_Rb2BeF4
_symmetry_space_group_name_H-M  'Pnma'
_cell_length_a       5.86249
_cell_length_b       7.69275
_cell_length_c       10.2266
_cell_angle_alpha    90
_cell_angle_beta     90
_cell_angle_gamma    90

_symmetry_Int_Tables_number  62
_chemical_formula_structural  Rb2BeF4
_chemical_formula_sum  Rb8Be4F6
_cell_volume  461.2043872146716
_cell_formula_units_Z  4
loop_
  _symmetry_equiv_pos_site_id
 _symmetry_equiv_pos_as_xyz
 1  'x, y, z'
loop_
 _atom_site_type_symbol
 _atom_site_label
 _atom_site_symmetry_multiplicity
 _atom_site_fract_x
 _atom_site_fract_y
 _atom_site_fract_z
 _atom_site_fract_occupancy
 Be  Be1  1  0.24755  0.23894  0.41849  1
 Be  Be2  1  0.74755  0.26106  0.91849  1
 Be  Be3  1  0.24755  0.73894  0.08151  1
 Be  Be4  1  0.74755  0.76106  0.58151  1
 F  F1  1  0.24749  0.30696  0.56410  1
 F  F2  1  0.02893  0.81272  0.15088  1
 F  F3  1  0.74749  0.19304  0.06410  1
 F  F4  1  0.52893  0.68728  0.65088  1
 F  F5  1  0.02893  0.31272  0.34912  1
 F  F6  1  0.46619  0.31277  0.34917  1
 F  F7  1  0.46619  0.81277  0.15083  1
 F  F8  1  0.52893  0.18728  0.84912  1
 F  F9  1  0.96619  0.18723  0.84917  1
 F  F10  1  0.24760  0.03548  0.41061  1
 F  F11  1  0.74760  0.96452  0.58939  1
 F  F12  1  0.24749  0.80696  0.93590  1
 F  F13  1  0.24760  0.53548  0.08939  1
 F  F14  1  0.96619  0.68723  0.65083  1
 F  F15  1  0.74749  0.69304  0.43590  1
 F  F16  1  0.74760  0.46452  0.91061  1
 Rb  Rb1  1  0.24752  0.66165  0.40545  1
 Rb  Rb2  1  0.74752  0.33835  0.59455  1
 Rb  Rb3  1  0.74752  0.83835  0.90545  1
 Rb  Rb4  1  0.24752  0.16165  0.09455  1
 Rb  Rb5  1  0.24753  0.98431  0.68984  1
 Rb  Rb6  1  0.74753  0.01569  0.31016  1
 Rb  Rb7  1  0.74753  0.51569  0.18984  1
 Rb  Rb8  1  0.24753  0.48431  0.81016  1
