CIF file written using JARVIS-Tools package.
data_Rb2U2O5
_symmetry_space_group_name_H-M  'P4/mmm'
_cell_length_a       4.36795
_cell_length_b       4.36795
_cell_length_c       8.92964
_cell_angle_alpha    90
_cell_angle_beta     90
_cell_angle_gamma    90

_symmetry_Int_Tables_number  123
_chemical_formula_structural  Rb2U2O5
_chemical_formula_sum  Rb2U2O5
_cell_volume  170.36840514426538
_cell_formula_units_Z  1
loop_
  _symmetry_equiv_pos_site_id
 _symmetry_equiv_pos_as_xyz
 1  'x, y, z'
loop_
 _atom_site_type_symbol
 _atom_site_label
 _atom_site_symmetry_multiplicity
 _atom_site_fract_x
 _atom_site_fract_y
 _atom_site_fract_z
 _atom_site_fract_occupancy
 O  O1  1  0.00000  0.50000  0.76414  1
 O  O2  1  0.00000  0.50000  0.23586  1
 O  O3  1  0.50000  0.50000  0.50000  1
 O  O4  1  0.50000  0.00000  0.76414  1
 O  O5  1  0.50000  0.00000  0.23586  1
 Rb  Rb1  1  0.00000  0.00000  -0.00000  1
 Rb  Rb2  1  0.00000  0.00000  0.50000  1
 U  U1  1  0.50000  0.50000  0.74205  1
 U  U2  1  0.50000  0.50000  0.25795  1
