CIF file written using JARVIS-Tools package.
data_SrB2Ir2
_symmetry_space_group_name_H-M  'Fddd'
_cell_length_a       5.63436
_cell_length_b       5.63436
_cell_length_c       6.18817
_cell_angle_alpha    105.433
_cell_angle_beta     105.433
_cell_angle_gamma    114.549

_symmetry_Int_Tables_number  70
_chemical_formula_structural  SrB2Ir2
_chemical_formula_sum  Sr2B4Ir4
_cell_volume  155.54481798044787
_cell_formula_units_Z  2
loop_
  _symmetry_equiv_pos_site_id
 _symmetry_equiv_pos_as_xyz
 1  'x, y, z'
loop_
 _atom_site_type_symbol
 _atom_site_label
 _atom_site_symmetry_multiplicity
 _atom_site_fract_x
 _atom_site_fract_y
 _atom_site_fract_z
 _atom_site_fract_occupancy
 B  B1  1  0.54940  0.45060  0.25000  1
 B  B2  1  0.79940  0.20060  0.75000  1
 B  B3  1  0.20060  0.79940  0.25000  1
 B  B4  1  0.45060  0.54940  0.75000  1
 Ir  Ir1  1  0.50635  0.75635  0.51270  1
 Ir  Ir2  1  0.75635  0.50635  0.01270  1
 Ir  Ir3  1  0.49365  0.24365  0.48730  1
 Ir  Ir4  1  0.24365  0.49365  0.98730  1
 Sr  Sr1  1  0.87500  0.12500  0.25000  1
 Sr  Sr2  1  0.12500  0.87500  0.75000  1
