CIF file written using JARVIS-Tools package.
data_NdCo9Si4
_symmetry_space_group_name_H-M  'I4/mcm'
_cell_length_a       7.75908
_cell_length_b       7.75908
_cell_length_c       7.91097
_cell_angle_alpha    119.367
_cell_angle_beta     119.367
_cell_angle_gamma    90

_symmetry_Int_Tables_number  140
_chemical_formula_structural  NdCo9Si4
_chemical_formula_sum  Nd2Co8Si8
_cell_volume  343.1150081630506
_cell_formula_units_Z  2
loop_
  _symmetry_equiv_pos_site_id
 _symmetry_equiv_pos_as_xyz
 1  'x, y, z'
loop_
 _atom_site_type_symbol
 _atom_site_label
 _atom_site_symmetry_multiplicity
 _atom_site_fract_x
 _atom_site_fract_y
 _atom_site_fract_z
 _atom_site_fract_occupancy
 Co  Co1  1  0.07120  0.79904  -0.00000  1
 Co  Co2  1  0.05110  0.55110  0.35979  1
 Co  Co3  1  0.92880  0.20096  0.00000  1
 Co  Co4  1  0.44890  0.69131  0.64021  1
 Co  Co5  1  0.70096  0.42880  -0.00000  1
 Co  Co6  1  0.29904  0.57120  0.00000  1
 Co  Co7  1  0.57120  0.70096  -0.00000  1
 Co  Co8  1  0.42880  0.29904  0.00000  1
 Co  Co9  1  0.79904  0.92880  0.00000  1
 Co  Co10  1  0.55110  0.30869  0.35979  1
 Co  Co11  1  0.30869  0.80869  0.35979  1
 Co  Co12  1  0.50000  0.00000  0.00000  1
 Co  Co13  1  -0.00000  0.50000  0.00000  1
 Co  Co14  1  0.20096  0.07120  -0.00000  1
 Co  Co15  1  0.80869  0.05110  0.35979  1
 Co  Co16  1  0.19131  0.94890  0.64021  1
 Co  Co17  1  0.69131  0.19131  0.64021  1
 Co  Co18  1  0.94890  0.44890  0.64021  1
 Nd  Nd1  1  0.25000  0.25000  0.50000  1
 Nd  Nd2  1  0.75000  0.75000  0.50000  1
 Si  Si1  1  0.04960  0.20917  0.75877  1
 Si  Si2  1  0.20917  0.70917  0.75877  1
 Si  Si3  1  0.45040  0.95040  0.24123  1
 Si  Si4  1  0.29083  0.45040  0.24123  1
 Si  Si5  1  0.95040  0.79083  0.24123  1
 Si  Si6  1  0.70917  0.54960  0.75877  1
 Si  Si7  1  0.54960  0.04960  0.75877  1
 Si  Si8  1  0.79083  0.29083  0.24123  1
