CIF file written using JARVIS-Tools package.
data_Ba3MgRu2O9
_symmetry_space_group_name_H-M  'P6_3/mmc'
_cell_length_a       5.81281
_cell_length_b       5.81281
_cell_length_c       14.0429
_cell_angle_alpha    90
_cell_angle_beta     90
_cell_angle_gamma    120

_symmetry_Int_Tables_number  194
_chemical_formula_structural  Ba3MgRu2O9
_chemical_formula_sum  Ba6Mg2Ru4O8
_cell_volume  410.921953919724
_cell_formula_units_Z  2
loop_
  _symmetry_equiv_pos_site_id
 _symmetry_equiv_pos_as_xyz
 1  'x, y, z'
loop_
 _atom_site_type_symbol
 _atom_site_label
 _atom_site_symmetry_multiplicity
 _atom_site_fract_x
 _atom_site_fract_y
 _atom_site_fract_z
 _atom_site_fract_occupancy
 Ba  Ba1  1  0.33333  0.66667  0.58906  1
 Ba  Ba2  1  0.66667  0.33333  0.08906  1
 Ba  Ba3  1  0.66667  0.33333  0.41094  1
 Ba  Ba4  1  0.33333  0.66667  0.91094  1
 Ba  Ba5  1  0.00000  0.00000  0.25000  1
 Ba  Ba6  1  0.00000  0.00000  0.75000  1
 Mg  Mg1  1  0.00000  0.00000  0.00000  1
 Mg  Mg2  1  0.00000  0.00000  0.50000  1
 O  O1  1  0.82721  0.65441  0.58494  1
 O  O2  1  0.65441  0.82721  0.08494  1
 O  O3  1  0.17279  0.82721  0.08494  1
 O  O4  1  0.17279  0.34559  0.41506  1
 O  O5  1  0.82721  0.17279  0.58494  1
 O  O6  1  0.98380  0.49190  0.75000  1
 O  O7  1  0.34559  0.17279  0.58494  1
 O  O8  1  0.82721  0.17279  0.91506  1
 O  O9  1  0.17279  0.34559  0.08494  1
 O  O10  1  0.17279  0.82721  0.41506  1
 O  O11  1  0.01620  0.50810  0.25000  1
 O  O12  1  0.82721  0.65441  0.91506  1
 O  O13  1  0.50810  0.01620  0.75000  1
 O  O14  1  0.34559  0.17279  0.91506  1
 O  O15  1  0.49190  0.50810  0.25000  1
 O  O16  1  0.50810  0.49190  0.75000  1
 O  O17  1  0.65441  0.82721  0.41506  1
 O  O18  1  0.49190  0.98380  0.25000  1
 Ru  Ru1  1  0.66667  0.33333  0.66038  1
 Ru  Ru2  1  0.33333  0.66667  0.16038  1
 Ru  Ru3  1  0.66667  0.33333  0.83962  1
 Ru  Ru4  1  0.33333  0.66667  0.33962  1
