CIF file written using JARVIS-Tools package.
data_Ba3NbGa3Si2O14
_symmetry_space_group_name_H-M  'P321'
_cell_length_a       8.60578
_cell_length_b       8.60578
_cell_length_c       5.26146
_cell_angle_alpha    90
_cell_angle_beta     90
_cell_angle_gamma    120

_symmetry_Int_Tables_number  150
_chemical_formula_structural  Ba3NbGa3Si2O14
_chemical_formula_sum  Ba3NbGa3Si2O4
_cell_volume  337.4567308294094
_cell_formula_units_Z  1
loop_
  _symmetry_equiv_pos_site_id
 _symmetry_equiv_pos_as_xyz
 1  'x, y, z'
loop_
 _atom_site_type_symbol
 _atom_site_label
 _atom_site_symmetry_multiplicity
 _atom_site_fract_x
 _atom_site_fract_y
 _atom_site_fract_z
 _atom_site_fract_occupancy
 Ba  Ba1  1  0.56863  0.56863  0.00000  1
 Ba  Ba2  1  0.00000  0.43137  0.00000  1
 Ba  Ba3  1  0.43137  0.00000  0.00000  1
 Ga  Ga1  1  0.25630  0.25630  0.50000  1
 Ga  Ga2  1  0.00000  0.74370  0.50000  1
 Ga  Ga3  1  0.74370  0.00000  0.50000  1
 Nb  Nb1  1  0.00000  0.00000  0.00000  1
 O  O1  1  0.10731  0.21880  0.77310  1
 O  O2  1  0.78120  0.88852  0.77310  1
 O  O3  1  0.70104  0.17578  0.64810  1
 O  O4  1  0.88852  0.78120  0.22690  1
 O  O5  1  0.89269  0.11148  0.22690  1
 O  O6  1  0.11148  0.89269  0.77310  1
 O  O7  1  0.29896  0.47474  0.35190  1
 O  O8  1  0.33333  0.66667  0.78543  1
 O  O9  1  0.17578  0.70104  0.35190  1
 O  O10  1  0.21880  0.10731  0.22690  1
 O  O11  1  0.66667  0.33333  0.21457  1
 O  O12  1  0.47474  0.29896  0.64810  1
 O  O13  1  0.52526  0.82422  0.35190  1
 O  O14  1  0.82422  0.52526  0.64810  1
 Si  Si1  1  0.33333  0.66667  0.47932  1
 Si  Si2  1  0.66667  0.33333  0.52068  1
