CIF file written using JARVIS-Tools package.
data_ScFe2Si2
_symmetry_space_group_name_H-M  'Pbcm'
_cell_length_a       5.00408
_cell_length_b       7.0546
_cell_length_c       7.45998
_cell_angle_alpha    90
_cell_angle_beta     90
_cell_angle_gamma    90

_symmetry_Int_Tables_number  57
_chemical_formula_structural  ScFe2Si2
_chemical_formula_sum  Sc4Fe8Si8
_cell_volume  263.3506392896679
_cell_formula_units_Z  4
loop_
  _symmetry_equiv_pos_site_id
 _symmetry_equiv_pos_as_xyz
 1  'x, y, z'
loop_
 _atom_site_type_symbol
 _atom_site_label
 _atom_site_symmetry_multiplicity
 _atom_site_fract_x
 _atom_site_fract_y
 _atom_site_fract_z
 _atom_site_fract_occupancy
 Fe  Fe1  1  0.25000  0.48806  0.88429  1
 Fe  Fe2  1  0.25000  0.98806  0.11571  1
 Fe  Fe3  1  0.75000  0.51194  0.11571  1
 Fe  Fe4  1  0.75000  0.01194  0.88429  1
 Fe  Fe5  1  0.50000  0.75000  0.61681  1
 Fe  Fe6  1  0.00000  0.25000  0.38319  1
 Fe  Fe7  1  0.00000  0.75000  0.61681  1
 Fe  Fe8  1  0.50000  0.25000  0.38319  1
 Sc  Sc1  1  0.75000  0.90861  0.24776  1
 Sc  Sc2  1  0.75000  0.40861  0.75224  1
 Sc  Sc3  1  0.25000  0.09139  0.75224  1
 Sc  Sc4  1  0.25000  0.59139  0.24776  1
 Si  Si1  1  0.50000  0.25000  0.04926  1
 Si  Si2  1  0.00000  0.25000  0.04926  1
 Si  Si3  1  0.75000  0.55111  0.41584  1
 Si  Si4  1  0.25000  0.44889  0.58416  1
 Si  Si5  1  0.75000  0.05111  0.58416  1
 Si  Si6  1  0.25000  0.94889  0.41584  1
 Si  Si7  1  0.00000  0.75000  0.95074  1
 Si  Si8  1  0.50000  0.75000  0.95074  1
