CIF file written using JARVIS-Tools package.
data_BaH4O6
_symmetry_space_group_name_H-M  'C2/c'
_cell_length_a       6.00037
_cell_length_b       6.00037
_cell_length_c       9.60378
_cell_angle_alpha    70.2006
_cell_angle_beta     109.799
_cell_angle_gamma    132.072

_symmetry_Int_Tables_number  15
_chemical_formula_structural  BaH4O6
_chemical_formula_sum  Ba2H8O2
_cell_volume  238.38556096833003
_cell_formula_units_Z  2
loop_
  _symmetry_equiv_pos_site_id
 _symmetry_equiv_pos_as_xyz
 1  'x, y, z'
loop_
 _atom_site_type_symbol
 _atom_site_label
 _atom_site_symmetry_multiplicity
 _atom_site_fract_x
 _atom_site_fract_y
 _atom_site_fract_z
 _atom_site_fract_occupancy
 Ba  Ba1  1  0.87839  0.87839  0.75000  1
 Ba  Ba2  1  0.12161  0.12161  0.25000  1
 H  H1  1  0.19528  0.56993  0.68000  1
 H  H2  1  0.56993  0.19528  0.82000  1
 H  H3  1  0.80472  0.43007  0.32000  1
 H  H4  1  0.43007  0.80472  0.18000  1
 H  H5  1  0.74091  0.39020  0.48025  1
 H  H6  1  0.39020  0.74091  0.01975  1
 H  H7  1  0.25909  0.60980  0.51975  1
 H  H8  1  0.60980  0.25909  -0.01975  1
 O  O1  1  0.75455  0.50110  0.37541  1
 O  O2  1  0.03853  0.28357  0.92469  1
 O  O3  1  0.71643  -0.03853  0.42469  1
 O  O4  1  -0.03853  0.71643  0.07531  1
 O  O5  1  0.28357  0.03853  0.57531  1
 O  O6  1  0.49890  0.24545  0.87541  1
 O  O7  1  0.42614  -0.16497  0.35807  1
 O  O8  1  -0.16497  0.42614  0.14193  1
 O  O9  1  0.24545  0.49890  0.62459  1
 O  O10  1  0.57386  0.16497  0.64193  1
 O  O11  1  0.16497  0.57386  0.85807  1
 O  O12  1  0.50110  0.75455  0.12459  1
