CIF file written using JARVIS-Tools package.
data_Ce2Zn6Ge3
_symmetry_space_group_name_H-M  'P-62m'
_cell_length_a       7.6856
_cell_length_b       7.6856
_cell_length_c       4.06259
_cell_angle_alpha    90
_cell_angle_beta     90
_cell_angle_gamma    120

_symmetry_Int_Tables_number  189
_chemical_formula_structural  Ce2Zn6Ge3
_chemical_formula_sum  Ce2Zn6Ge3
_cell_volume  207.82053320561482
_cell_formula_units_Z  1
loop_
  _symmetry_equiv_pos_site_id
 _symmetry_equiv_pos_as_xyz
 1  'x, y, z'
loop_
 _atom_site_type_symbol
 _atom_site_label
 _atom_site_symmetry_multiplicity
 _atom_site_fract_x
 _atom_site_fract_y
 _atom_site_fract_z
 _atom_site_fract_occupancy
 Ce  Ce1  1  0.66667  0.33333  0.00000  1
 Ce  Ce2  1  0.33333  0.66667  0.00000  1
 Ge  Ge1  1  0.00000  0.60774  0.50000  1
 Ge  Ge2  1  0.39226  0.39226  0.50000  1
 Ge  Ge3  1  0.60774  0.00000  0.50000  1
 Zn  Zn1  1  0.00000  0.27900  0.50000  1
 Zn  Zn2  1  0.27900  0.00000  0.50000  1
 Zn  Zn3  1  -0.00000  0.81021  0.00000  1
 Zn  Zn4  1  0.18979  0.18979  0.00000  1
 Zn  Zn5  1  0.72100  0.72100  0.50000  1
 Zn  Zn6  1  0.81021  -0.00000  0.00000  1
