CIF file written using JARVIS-Tools package.
data_PrPS4
_symmetry_space_group_name_H-M  'I4_1/acd'
_cell_length_a       10.9485
_cell_length_b       10.9485
_cell_length_c       12.4624
_cell_angle_alpha    116.057
_cell_angle_beta     116.057
_cell_angle_gamma    90

_symmetry_Int_Tables_number  142
_chemical_formula_structural  PrPS4
_chemical_formula_sum  Pr8P8S32
_cell_volume  1170.6571785928504
_cell_formula_units_Z  8
loop_
  _symmetry_equiv_pos_site_id
 _symmetry_equiv_pos_as_xyz
 1  'x, y, z'
loop_
 _atom_site_type_symbol
 _atom_site_label
 _atom_site_symmetry_multiplicity
 _atom_site_fract_x
 _atom_site_fract_y
 _atom_site_fract_z
 _atom_site_fract_occupancy
 P  P1  1  0.75000  0.28729  0.00000  1
 P  P2  1  0.25000  0.21271  -0.00000  1
 P  P3  1  0.21271  0.75000  0.50000  1
 P  P4  1  0.71271  0.75000  0.50000  1
 P  P5  1  0.25000  0.71271  -0.00000  1
 P  P6  1  0.75000  0.78729  0.00000  1
 P  P7  1  0.78729  0.25000  0.50000  1
 P  P8  1  0.28729  0.25000  0.50000  1
 Pr  Pr1  1  0.12500  0.37500  0.25000  1
 Pr  Pr2  1  0.87500  0.12500  0.75000  1
 Pr  Pr3  1  0.12500  0.87500  0.25000  1
 Pr  Pr4  1  0.62500  0.37500  0.25000  1
 Pr  Pr5  1  0.37500  0.62500  0.75000  1
 Pr  Pr6  1  0.62500  0.87500  0.25000  1
 Pr  Pr7  1  0.87500  0.62500  0.75000  1
 Pr  Pr8  1  0.37500  0.12500  0.75000  1
 S  S1  1  0.59426  0.89085  0.00395  1
 S  S2  1  0.89085  0.40970  0.50395  1
 S  S3  1  0.61311  0.59426  0.50395  1
 S  S4  1  0.16171  0.23351  0.82736  1
 S  S5  1  0.09030  0.60915  0.99605  1
 S  S6  1  0.09385  0.16171  0.32736  1
 S  S7  1  0.26649  0.33829  0.67264  1
 S  S8  1  0.33829  0.40615  0.17264  1
 S  S9  1  0.40615  0.83435  0.67264  1
 S  S10  1  0.83829  0.76649  0.17264  1
 S  S11  1  0.90615  0.83829  0.67264  1
 S  S12  1  0.76649  0.33435  0.67264  1
 S  S13  1  0.40970  0.61311  0.00395  1
 S  S14  1  0.83435  0.26649  0.17264  1
 S  S15  1  0.88689  0.09030  0.49605  1
 S  S16  1  0.73351  0.66171  0.32736  1
 S  S17  1  0.16565  0.73351  0.82736  1
 S  S18  1  0.66171  0.59385  0.82736  1
 S  S19  1  0.59385  0.16565  0.32736  1
 S  S20  1  0.59030  0.38689  0.99605  1
 S  S21  1  0.90970  0.39085  0.00395  1
 S  S22  1  0.38689  0.40574  0.49605  1
 S  S23  1  0.23351  0.66565  0.32736  1
 S  S24  1  0.40574  0.10915  0.99605  1
 S  S25  1  0.10915  0.59030  0.49605  1
 S  S26  1  0.11311  0.90970  0.50395  1
 S  S27  1  0.39085  0.09426  0.50395  1
 S  S28  1  0.09426  0.11311  0.00395  1
 S  S29  1  0.33435  0.90615  0.17264  1
 S  S30  1  0.90574  0.88689  0.99605  1
 S  S31  1  0.60915  0.90574  0.49605  1
 S  S32  1  0.66565  0.09385  0.82736  1
