CIF file written using JARVIS-Tools package.
data_K3Cu2F7
_symmetry_space_group_name_H-M  'I4/mmm'
_cell_length_a       4.03962
_cell_length_b       4.03962
_cell_length_c       10.933
_cell_angle_alpha    100.646
_cell_angle_beta     100.646
_cell_angle_gamma    90

_symmetry_Int_Tables_number  139
_chemical_formula_structural  K3Cu2F7
_chemical_formula_sum  K3Cu2F7
_cell_volume  172.21378489442657
_cell_formula_units_Z  1
loop_
  _symmetry_equiv_pos_site_id
 _symmetry_equiv_pos_as_xyz
 1  'x, y, z'
loop_
 _atom_site_type_symbol
 _atom_site_label
 _atom_site_symmetry_multiplicity
 _atom_site_fract_x
 _atom_site_fract_y
 _atom_site_fract_z
 _atom_site_fract_occupancy
 Cu  Cu1  1  0.09564  0.09564  0.19128  1
 Cu  Cu2  1  0.90436  0.90436  0.80872  1
 F  F1  1  0.40605  0.90605  0.81210  1
 F  F2  1  0.90605  0.40605  0.81210  1
 F  F3  1  0.59395  0.09395  0.18790  1
 F  F4  1  0.09395  0.59395  0.18790  1
 F  F5  1  0.00000  0.00000  0.00000  1
 F  F6  1  0.19197  0.19197  0.38394  1
 F  F7  1  0.80803  0.80803  0.61606  1
 K  K1  1  0.31580  0.31580  0.63160  1
 K  K2  1  0.68420  0.68420  0.36840  1
 K  K3  1  0.50000  0.50000  0.00000  1
