CIF file written using JARVIS-Tools package.
data_Ba2ZnAg2Se2O2
_symmetry_space_group_name_H-M  'Cmce'
_cell_length_a       6.10823
_cell_length_b       6.10866
_cell_length_c       10.505
_cell_angle_alpha    90
_cell_angle_beta     106.905
_cell_angle_gamma    90

_symmetry_Int_Tables_number  64
_chemical_formula_structural  Ba2ZnAg2Se2O2
_chemical_formula_sum  Ba4Zn2Ag4Se4O4
_cell_volume  375.0353687725084
_cell_formula_units_Z  2
loop_
  _symmetry_equiv_pos_site_id
 _symmetry_equiv_pos_as_xyz
 1  'x, y, z'
loop_
 _atom_site_type_symbol
 _atom_site_label
 _atom_site_symmetry_multiplicity
 _atom_site_fract_x
 _atom_site_fract_y
 _atom_site_fract_z
 _atom_site_fract_occupancy
 Ag  Ag1  1  0.50298  0.74999  0.49999  1
 Ag  Ag2  1  0.99702  0.24999  0.50001  1
 Ag  Ag3  1  0.00298  0.75001  0.49999  1
 Ag  Ag4  1  0.49702  0.25001  0.50001  1
 Ba  Ba1  1  0.91172  0.50000  0.82345  1
 Ba  Ba2  1  0.08828  0.50000  0.17655  1
 Ba  Ba3  1  0.58828  0.00000  0.17655  1
 Ba  Ba4  1  0.41172  -0.00000  0.82345  1
 O  O1  1  0.78294  0.78303  -0.00000  1
 O  O2  1  0.71706  0.28303  0.00000  1
 O  O3  1  0.21706  0.21697  0.00000  1
 O  O4  1  0.28294  0.71697  -0.00000  1
 Se  Se1  1  0.66253  0.50000  0.32505  1
 Se  Se2  1  0.16253  0.00000  0.32505  1
 Se  Se3  1  0.83747  -0.00000  0.67495  1
 Se  Se4  1  0.33747  0.50000  0.67495  1
 Zn  Zn1  1  0.50000  0.50000  0.00000  1
 Zn  Zn2  1  0.00000  0.00000  0.00000  1
