CIF file written using JARVIS-Tools package.
data_SrIn4
_symmetry_space_group_name_H-M  'C2/m'
_cell_length_a       5.21677
_cell_length_b       6.61448
_cell_length_c       9.69641
_cell_angle_alpha    73.3895
_cell_angle_beta     74.4013
_cell_angle_gamma    66.786

_symmetry_Int_Tables_number  12
_chemical_formula_structural  SrIn4
_chemical_formula_sum  Sr2In8
_cell_volume  289.99331170187077
_cell_formula_units_Z  2
loop_
  _symmetry_equiv_pos_site_id
 _symmetry_equiv_pos_as_xyz
 1  'x, y, z'
loop_
 _atom_site_type_symbol
 _atom_site_label
 _atom_site_symmetry_multiplicity
 _atom_site_fract_x
 _atom_site_fract_y
 _atom_site_fract_z
 _atom_site_fract_occupancy
 In  In1  1  0.15582  0.03920  0.64916  1
 In  In2  1  0.56588  0.76818  0.10103  1
 In  In3  1  0.84418  0.96080  0.35084  1
 In  In4  1  0.42287  0.73131  0.42282  1
 In  In5  1  0.43412  0.23182  0.89897  1
 In  In6  1  0.84707  0.25240  0.05271  1
 In  In7  1  0.57713  0.26869  0.57718  1
 In  In8  1  0.15293  0.74760  0.94729  1
 Sr  Sr1  1  0.83595  0.61967  0.70835  1
 Sr  Sr2  1  0.16405  0.38033  0.29165  1
