CIF file written using JARVIS-Tools package.
data_TaAgS3
_symmetry_space_group_name_H-M  'Cmcm'
_cell_length_a       3.39115
_cell_length_b       7.29316
_cell_length_c       7.80397
_cell_angle_alpha    90
_cell_angle_beta     90
_cell_angle_gamma    103.444

_symmetry_Int_Tables_number  63
_chemical_formula_structural  TaAgS3
_chemical_formula_sum  Ta2Ag2S6
_cell_volume  187.720961235654
_cell_formula_units_Z  2
loop_
  _symmetry_equiv_pos_site_id
 _symmetry_equiv_pos_as_xyz
 1  'x, y, z'
loop_
 _atom_site_type_symbol
 _atom_site_label
 _atom_site_symmetry_multiplicity
 _atom_site_fract_x
 _atom_site_fract_y
 _atom_site_fract_z
 _atom_site_fract_occupancy
 Ag  Ag1  1  0.00006  0.00012  0.75991  1
 Ag  Ag2  1  -0.00006  -0.00012  0.25991  1
 S  S1  1  0.67302  0.34603  0.18947  1
 S  S2  1  0.67303  0.34606  0.83005  1
 S  S3  1  0.32697  0.65394  0.33005  1
 S  S4  1  0.89703  0.79407  0.00980  1
 S  S5  1  0.10297  0.20593  0.50980  1
 S  S6  1  0.32698  0.65397  0.68947  1
 Ta  Ta1  1  0.73724  0.47448  0.50977  1
 Ta  Ta2  1  0.26276  0.52552  0.00977  1
