CIF file written using JARVIS-Tools package.
data_USiO4
_symmetry_space_group_name_H-M  'I4_1/amd'
_cell_length_a       5.86994
_cell_length_b       5.86994
_cell_length_c       5.86994
_cell_angle_alpha    106.882
_cell_angle_beta     106.882
_cell_angle_gamma    114.784

_symmetry_Int_Tables_number  141
_chemical_formula_structural  USiO4
_chemical_formula_sum  U2Si2O8
_cell_volume  154.68300552166218
_cell_formula_units_Z  2
loop_
  _symmetry_equiv_pos_site_id
 _symmetry_equiv_pos_as_xyz
 1  'x, y, z'
loop_
 _atom_site_type_symbol
 _atom_site_label
 _atom_site_symmetry_multiplicity
 _atom_site_fract_x
 _atom_site_fract_y
 _atom_site_fract_z
 _atom_site_fract_occupancy
 O  O1  1  0.13835  0.70756  0.43079  1
 O  O2  1  0.70756  0.77678  0.56921  1
 O  O3  1  0.70756  0.13835  0.93079  1
 O  O4  1  0.77678  0.70756  0.06921  1
 O  O5  1  0.29244  0.86165  0.06921  1
 O  O6  1  0.22322  0.29244  0.93079  1
 O  O7  1  0.86165  0.29244  0.56921  1
 O  O8  1  0.29244  0.22322  0.43079  1
 Si  Si1  1  0.12500  0.87500  0.25000  1
 Si  Si2  1  0.87500  0.12500  0.75000  1
 U  U1  1  0.62500  0.37500  0.25000  1
 U  U2  1  0.37500  0.62500  0.75000  1
