CIF file written using JARVIS-Tools package.
data_BaMgBi4O8
_symmetry_space_group_name_H-M  'P-31m'
_cell_length_a       6.2303
_cell_length_b       6.2303
_cell_length_c       7.44106
_cell_angle_alpha    90
_cell_angle_beta     90
_cell_angle_gamma    120

_symmetry_Int_Tables_number  162
_chemical_formula_structural  BaMgBi4O8
_chemical_formula_sum  BaMgBi4O8
_cell_volume  250.1406430049074
_cell_formula_units_Z  1
loop_
  _symmetry_equiv_pos_site_id
 _symmetry_equiv_pos_as_xyz
 1  'x, y, z'
loop_
 _atom_site_type_symbol
 _atom_site_label
 _atom_site_symmetry_multiplicity
 _atom_site_fract_x
 _atom_site_fract_y
 _atom_site_fract_z
 _atom_site_fract_occupancy
 Ba  Ba1  1  0.00000  0.00000  0.00000  1
 Bi  Bi1  1  0.33333  0.66667  0.71593  1
 Bi  Bi2  1  0.66667  0.33333  0.71593  1
 Bi  Bi3  1  0.33333  0.66667  0.28407  1
 Bi  Bi4  1  0.66667  0.33333  0.28407  1
 Mg  Mg1  1  0.00000  0.00000  0.50000  1
 O  O1  1  0.72614  -0.00000  0.69049  1
 O  O2  1  -0.00000  0.72614  0.69049  1
 O  O3  1  0.27386  0.27386  0.69049  1
 O  O4  1  0.27386  0.00000  0.30951  1
 O  O5  1  0.72614  0.72614  0.30951  1
 O  O6  1  0.00000  0.27386  0.30951  1
 O  O7  1  0.33333  0.66667  0.00000  1
 O  O8  1  0.66667  0.33333  0.00000  1
