CIF file written using JARVIS-Tools package.
data_TbBaMn2O5
_symmetry_space_group_name_H-M  'P4/mmm'
_cell_length_a       5.55977
_cell_length_b       5.55977
_cell_length_c       7.57928
_cell_angle_alpha    90
_cell_angle_beta     90
_cell_angle_gamma    90

_symmetry_Int_Tables_number  123
_chemical_formula_structural  TbBaMn2O5
_chemical_formula_sum  Tb2Ba2Mn4O0
_cell_volume  234.28371698350895
_cell_formula_units_Z  2
loop_
  _symmetry_equiv_pos_site_id
 _symmetry_equiv_pos_as_xyz
 1  'x, y, z'
loop_
 _atom_site_type_symbol
 _atom_site_label
 _atom_site_symmetry_multiplicity
 _atom_site_fract_x
 _atom_site_fract_y
 _atom_site_fract_z
 _atom_site_fract_occupancy
 Ba  Ba1  1  0.50000  0.50000  0.00000  1
 Ba  Ba2  1  0.00000  0.00000  0.00000  1
 Mn  Mn1  1  0.00000  0.50000  0.72895  1
 Mn  Mn2  1  0.50000  0.00000  0.27105  1
 Mn  Mn3  1  0.00000  0.50000  0.27106  1
 Mn  Mn4  1  0.50000  0.00000  0.72894  1
 O  O1  1  0.25000  0.75000  0.68978  1
 O  O2  1  0.00000  0.50000  0.00000  1
 O  O3  1  0.75000  0.75000  0.31022  1
 O  O4  1  0.25000  0.25000  0.31022  1
 O  O5  1  0.75000  0.25000  0.31022  1
 O  O6  1  0.50000  0.00000  -0.00000  1
 O  O7  1  0.75000  0.75000  0.68978  1
 O  O8  1  0.25000  0.25000  0.68978  1
 O  O9  1  0.25000  0.75000  0.31022  1
 O  O10  1  0.75000  0.25000  0.68978  1
 Tb  Tb1  1  0.00000  0.00000  0.50000  1
 Tb  Tb2  1  0.50000  0.50000  0.50000  1
