CIF file written using JARVIS-Tools package.
data_YbMn4Cu3O12
_symmetry_space_group_name_H-M  'Im-3'
_cell_length_a       6.23631
_cell_length_b       6.23621
_cell_length_c       6.23625
_cell_angle_alpha    109.471
_cell_angle_beta     109.472
_cell_angle_gamma    109.471

_symmetry_Int_Tables_number  204
_chemical_formula_structural  YbMn4Cu3O12
_chemical_formula_sum  YbMn4Cu3O2
_cell_volume  186.7018568601157
_cell_formula_units_Z  1
loop_
  _symmetry_equiv_pos_site_id
 _symmetry_equiv_pos_as_xyz
 1  'x, y, z'
loop_
 _atom_site_type_symbol
 _atom_site_label
 _atom_site_symmetry_multiplicity
 _atom_site_fract_x
 _atom_site_fract_y
 _atom_site_fract_z
 _atom_site_fract_occupancy
 Cu  Cu1  1  0.50000  -0.00000  0.50000  1
 Cu  Cu2  1  0.50000  0.50000  0.00000  1
 Cu  Cu3  1  0.00000  0.50000  0.50000  1
 Mn  Mn1  1  0.00000  0.00000  0.50000  1
 Mn  Mn2  1  0.50000  0.00000  0.00000  1
 Mn  Mn3  1  0.50000  0.50000  0.50000  1
 Mn  Mn4  1  1.00000  0.50000  -0.00000  1
 O  O1  1  0.82134  0.30047  0.12182  1
 O  O2  1  0.12182  0.82135  0.30047  1
 O  O3  1  0.30047  0.47913  0.17866  1
 O  O4  1  0.17866  0.69953  0.87818  1
 O  O5  1  0.87818  0.17865  0.69953  1
 O  O6  1  0.17866  0.30047  0.47913  1
 O  O7  1  0.30047  0.12182  0.82134  1
 O  O8  1  0.69953  0.52087  0.82134  1
 O  O9  1  0.82134  0.69953  0.52087  1
 O  O10  1  0.47912  0.17865  0.30047  1
 O  O11  1  0.52088  0.82135  0.69953  1
 O  O12  1  0.69953  0.87818  0.17866  1
 Yb  Yb1  1  0.00000  0.00000  0.00000  1
