CIF file written using JARVIS-Tools package.
data_Nb5Ga13
_symmetry_space_group_name_H-M  'Cmmm'
_cell_length_a       3.79268
_cell_length_b       3.78108
_cell_length_c       20.5623
_cell_angle_alpha    90
_cell_angle_beta     95.2916
_cell_angle_gamma    90

_symmetry_Int_Tables_number  65
_chemical_formula_structural  Nb5Ga13
_chemical_formula_sum  Nb5Ga3
_cell_volume  293.6160125043265
_cell_formula_units_Z  1
loop_
  _symmetry_equiv_pos_site_id
 _symmetry_equiv_pos_as_xyz
 1  'x, y, z'
loop_
 _atom_site_type_symbol
 _atom_site_label
 _atom_site_symmetry_multiplicity
 _atom_site_fract_x
 _atom_site_fract_y
 _atom_site_fract_z
 _atom_site_fract_occupancy
 Ga  Ga1  1  0.16483  0.00000  0.32966  1
 Ga  Ga2  1  0.55479  0.50000  0.10957  1
 Ga  Ga3  1  0.33561  0.50000  0.67123  1
 Ga  Ga4  1  0.66439  0.50000  0.32877  1
 Ga  Ga5  1  0.22848  0.50000  0.45696  1
 Ga  Ga6  1  0.00000  0.50000  0.00000  1
 Ga  Ga7  1  0.94541  0.00000  0.89081  1
 Ga  Ga8  1  0.44521  0.50000  0.89043  1
 Ga  Ga9  1  0.83517  0.00000  0.67034  1
 Ga  Ga10  1  0.61202  0.00000  0.22404  1
 Ga  Ga11  1  0.38798  0.00000  0.77596  1
 Ga  Ga12  1  0.77152  0.50000  0.54304  1
 Ga  Ga13  1  0.05459  0.00000  0.10919  1
 Nb  Nb1  1  0.71573  0.00000  0.43147  1
 Nb  Nb2  1  0.10769  0.50000  0.21538  1
 Nb  Nb3  1  0.89231  0.50000  0.78462  1
 Nb  Nb4  1  0.28427  0.00000  0.56853  1
 Nb  Nb5  1  0.50000  0.00000  -0.00000  1
