CIF file written using JARVIS-Tools package.
data_K2ScPCO7
_symmetry_space_group_name_H-M  'P2_1/m'
_cell_length_a       5.61561
_cell_length_b       6.85449
_cell_length_c       9.77104
_cell_angle_alpha    90
_cell_angle_beta     90.8728
_cell_angle_gamma    90

_symmetry_Int_Tables_number  11
_chemical_formula_structural  K2ScPCO7
_chemical_formula_sum  K4Sc2P2C2O4
_cell_volume  376.06488013359905
_cell_formula_units_Z  2
loop_
  _symmetry_equiv_pos_site_id
 _symmetry_equiv_pos_as_xyz
 1  'x, y, z'
loop_
 _atom_site_type_symbol
 _atom_site_label
 _atom_site_symmetry_multiplicity
 _atom_site_fract_x
 _atom_site_fract_y
 _atom_site_fract_z
 _atom_site_fract_occupancy
 C  C1  1  0.71535  0.75000  0.10303  1
 C  C2  1  0.28465  0.25000  0.89697  1
 K  K1  1  0.23828  0.47794  0.22798  1
 K  K2  1  0.23828  0.02206  0.22798  1
 K  K3  1  0.76172  0.52206  0.77202  1
 K  K4  1  0.76172  0.97794  0.77202  1
 O  O1  1  0.32400  0.25000  0.02325  1
 O  O2  1  0.07121  0.25000  0.83986  1
 O  O3  1  0.54299  0.75000  0.19427  1
 O  O4  1  0.77615  0.06354  0.35217  1
 O  O5  1  0.77615  0.43646  0.35217  1
 O  O6  1  0.92879  0.75000  0.16014  1
 O  O7  1  0.44554  0.25000  0.46797  1
 O  O8  1  0.55446  0.75000  0.53203  1
 O  O9  1  0.22385  0.93646  0.64783  1
 O  O10  1  0.22385  0.56354  0.64783  1
 O  O11  1  0.13452  0.75000  0.42981  1
 O  O12  1  0.45701  0.25000  0.80573  1
 O  O13  1  0.86548  0.25000  0.57019  1
 O  O14  1  0.67600  0.75000  0.97675  1
 P  P1  1  0.28259  0.75000  0.56589  1
 P  P2  1  0.71741  0.25000  0.43411  1
 Sc  Sc1  1  0.22048  0.25000  0.63411  1
 Sc  Sc2  1  0.77952  0.75000  0.36589  1
