CIF file written using JARVIS-Tools package.
data_Ta2Se3
_symmetry_space_group_name_H-M  'P2_1/m'
_cell_length_a       6.59527
_cell_length_b       3.42929
_cell_length_c       9.3001
_cell_angle_alpha    90
_cell_angle_beta     104.004
_cell_angle_gamma    90

_symmetry_Int_Tables_number  11
_chemical_formula_structural  Ta2Se3
_chemical_formula_sum  Ta4Se6
_cell_volume  204.08960436022045
_cell_formula_units_Z  2
loop_
  _symmetry_equiv_pos_site_id
 _symmetry_equiv_pos_as_xyz
 1  'x, y, z'
loop_
 _atom_site_type_symbol
 _atom_site_label
 _atom_site_symmetry_multiplicity
 _atom_site_fract_x
 _atom_site_fract_y
 _atom_site_fract_z
 _atom_site_fract_occupancy
 Se  Se1  1  0.27439  0.25000  0.48662  1
 Se  Se2  1  0.72561  0.75000  0.51338  1
 Se  Se3  1  0.02838  0.25000  0.84216  1
 Se  Se4  1  0.97162  0.75000  0.15784  1
 Se  Se5  1  0.52342  0.75000  0.79399  1
 Se  Se6  1  0.47658  0.25000  0.20601  1
 Ta  Ta1  1  0.88695  0.25000  0.36638  1
 Ta  Ta2  1  0.11305  0.75000  0.63362  1
 Ta  Ta3  1  0.67847  0.25000  0.99813  1
 Ta  Ta4  1  0.32153  0.75000  0.00187  1
