CIF file written using JARVIS-Tools package.
data_MnAsO4
_symmetry_space_group_name_H-M  'P2_1/c'
_cell_length_a       4.82968
_cell_length_b       9.05778
_cell_length_c       7.98433
_cell_angle_alpha    90
_cell_angle_beta     123.39
_cell_angle_gamma    90

_symmetry_Int_Tables_number  14
_chemical_formula_structural  MnAsO4
_chemical_formula_sum  Mn4As4O6
_cell_volume  291.632879229402
_cell_formula_units_Z  4
loop_
  _symmetry_equiv_pos_site_id
 _symmetry_equiv_pos_as_xyz
 1  'x, y, z'
loop_
 _atom_site_type_symbol
 _atom_site_label
 _atom_site_symmetry_multiplicity
 _atom_site_fract_x
 _atom_site_fract_y
 _atom_site_fract_z
 _atom_site_fract_occupancy
 As  As1  1  0.81509  0.68080  0.78026  1
 As  As2  1  0.81509  0.81920  0.28026  1
 As  As3  1  0.18491  0.31920  0.21974  1
 As  As4  1  0.18491  0.18080  0.71974  1
 Mn  Mn1  1  0.00000  0.50000  0.50000  1
 Mn  Mn2  1  0.00000  0.00000  0.00000  1
 Mn  Mn3  1  0.50000  0.00000  0.50000  1
 Mn  Mn4  1  0.50000  0.50000  -0.00000  1
 O  O1  1  0.74766  0.87776  0.05665  1
 O  O2  1  0.82217  0.12257  0.50827  1
 O  O3  1  0.25234  0.37776  0.44335  1
 O  O4  1  0.86318  0.62814  0.27110  1
 O  O5  1  0.47843  0.87858  0.28384  1
 O  O6  1  0.13682  0.37186  0.72890  1
 O  O7  1  0.52157  0.37858  0.21616  1
 O  O8  1  0.74766  0.62224  0.55665  1
 O  O9  1  0.25234  0.12224  0.94335  1
 O  O10  1  0.82217  0.37743  0.00827  1
 O  O11  1  0.13682  0.12814  0.22890  1
 O  O12  1  0.52157  0.12142  0.71616  1
 O  O13  1  0.17783  0.62257  0.99173  1
 O  O14  1  0.47843  0.62142  0.78384  1
 O  O15  1  0.86318  0.87186  0.77110  1
 O  O16  1  0.17783  0.87743  0.49173  1
