CIF file written using JARVIS-Tools package.
data_NdGa
_symmetry_space_group_name_H-M  'Cmcm'
_cell_length_a       4.16447
_cell_length_b       4.45558
_cell_length_c       6.05406
_cell_angle_alpha    111.591
_cell_angle_beta     90
_cell_angle_gamma    90

_symmetry_Int_Tables_number  63
_chemical_formula_structural  NdGa
_chemical_formula_sum  Nd2Ga2
_cell_volume  104.45163974028723
_cell_formula_units_Z  2
loop_
  _symmetry_equiv_pos_site_id
 _symmetry_equiv_pos_as_xyz
 1  'x, y, z'
loop_
 _atom_site_type_symbol
 _atom_site_label
 _atom_site_symmetry_multiplicity
 _atom_site_fract_x
 _atom_site_fract_y
 _atom_site_fract_z
 _atom_site_fract_occupancy
 Ga  Ga1  1  0.75000  0.42798  0.85595  1
 Ga  Ga2  1  0.25000  0.57202  0.14405  1
 Nd  Nd1  1  0.75000  0.14111  0.28221  1
 Nd  Nd2  1  0.25000  0.85889  0.71779  1
