CIF file written using JARVIS-Tools package.
data_ScAsO4
_symmetry_space_group_name_H-M  'I4_1/amd'
_cell_length_a       5.70084
_cell_length_b       5.70087
_cell_length_c       5.70087
_cell_angle_alpha    107.219
_cell_angle_beta     107.216
_cell_angle_gamma    114.079

_symmetry_Int_Tables_number  141
_chemical_formula_structural  ScAsO4
_chemical_formula_sum  Sc2As2O8
_cell_volume  141.92837267891105
_cell_formula_units_Z  2
loop_
  _symmetry_equiv_pos_site_id
 _symmetry_equiv_pos_as_xyz
 1  'x, y, z'
loop_
 _atom_site_type_symbol
 _atom_site_label
 _atom_site_symmetry_multiplicity
 _atom_site_fract_x
 _atom_site_fract_y
 _atom_site_fract_z
 _atom_site_fract_occupancy
 As  As1  1  0.37500  0.62500  0.75000  1
 As  As2  1  0.62500  0.37500  0.25000  1
 O  O1  1  0.18912  0.62663  0.93752  1
 O  O2  1  0.18912  0.25160  0.56249  1
 O  O3  1  0.25161  0.18912  0.06249  1
 O  O4  1  0.81088  0.37337  0.06248  1
 O  O5  1  0.62664  0.18912  0.43752  1
 O  O6  1  0.74839  0.81088  0.93751  1
 O  O7  1  0.81088  0.74840  0.43751  1
 O  O8  1  0.37336  0.81088  0.56248  1
 Sc  Sc1  1  0.12500  0.87500  0.25000  1
 Sc  Sc2  1  0.87500  0.12500  0.75000  1
