CIF file written using JARVIS-Tools package.
data_Li4Fe3Co3Sn2O16
_symmetry_space_group_name_H-M  'Cm'
_cell_length_a       5.75362
_cell_length_b       5.75358
_cell_length_c       9.51962
_cell_angle_alpha    89.9202
_cell_angle_beta     89.9204
_cell_angle_gamma    59.7041

_symmetry_Int_Tables_number  8
_chemical_formula_structural  Li4Fe3Co3Sn2O16
_chemical_formula_sum  Li4Fe3Co3Sn2O6
_cell_volume  272.09836082889524
_cell_formula_units_Z  1
loop_
  _symmetry_equiv_pos_site_id
 _symmetry_equiv_pos_as_xyz
 1  'x, y, z'
loop_
 _atom_site_type_symbol
 _atom_site_label
 _atom_site_symmetry_multiplicity
 _atom_site_fract_x
 _atom_site_fract_y
 _atom_site_fract_z
 _atom_site_fract_occupancy
 Co  Co1  1  0.16833  0.16831  0.28513  1
 Co  Co2  1  0.83152  0.33907  0.78472  1
 Co  Co3  1  0.33909  0.83150  0.78472  1
 Fe  Fe1  1  0.17508  0.65538  0.28525  1
 Fe  Fe2  1  0.83071  0.83068  0.78515  1
 Fe  Fe3  1  0.65540  0.17506  0.28525  1
 Li  Li1  1  0.66838  0.66836  0.10363  1
 Li  Li2  1  0.00042  0.00040  0.50449  1
 Li  Li3  1  0.00020  0.00018  0.00517  1
 Li  Li4  1  0.33513  0.33511  0.60787  1
 O  O1  1  0.51660  0.51657  0.66894  1
 O  O2  1  0.83956  0.31322  0.39529  1
 O  O3  1  0.48622  0.48620  0.16450  1
 O  O4  1  0.66827  0.66825  0.88851  1
 O  O5  1  0.99926  -0.00076  0.69184  1
 O  O6  1  -0.00175  -0.00177  0.19322  1
 O  O7  1  0.31325  0.83954  0.39529  1
 O  O8  1  0.51586  0.97113  0.66896  1
 O  O9  1  0.68763  0.15415  0.89459  1
 O  O10  1  0.48577  0.03235  0.16943  1
 O  O11  1  0.03237  0.48575  0.16943  1
 O  O12  1  0.33114  0.33112  0.39192  1
 O  O13  1  0.97116  0.51584  0.66896  1
 O  O14  1  0.15474  0.15472  0.89775  1
 O  O15  1  0.84380  0.84378  0.39467  1
 O  O16  1  0.15417  0.68761  0.89459  1
 Sn  Sn1  1  0.33140  0.33138  0.00491  1
 Sn  Sn2  1  0.66660  0.66658  0.50799  1
