CIF file written using JARVIS-Tools package.
data_SrGa2B2O7
_symmetry_space_group_name_H-M  'Cmcm'
_cell_length_a       5.73099
_cell_length_b       7.25384
_cell_length_c       7.25384
_cell_angle_alpha    108.988
_cell_angle_beta     90
_cell_angle_gamma    90

_symmetry_Int_Tables_number  63
_chemical_formula_structural  SrGa2B2O7
_chemical_formula_sum  Sr2Ga4B4O4
_cell_volume  285.1460921278219
_cell_formula_units_Z  2
loop_
  _symmetry_equiv_pos_site_id
 _symmetry_equiv_pos_as_xyz
 1  'x, y, z'
loop_
 _atom_site_type_symbol
 _atom_site_label
 _atom_site_symmetry_multiplicity
 _atom_site_fract_x
 _atom_site_fract_y
 _atom_site_fract_z
 _atom_site_fract_occupancy
 B  B1  1  0.25000  0.29605  0.51395  1
 B  B2  1  0.25000  0.51395  0.29605  1
 B  B3  1  0.75000  0.48605  0.70395  1
 B  B4  1  0.75000  0.70395  0.48605  1
 Ga  Ga1  1  0.75000  0.12342  0.70551  1
 Ga  Ga2  1  0.25000  0.29449  0.87658  1
 Ga  Ga3  1  0.75000  0.70551  0.12342  1
 Ga  Ga4  1  0.25000  0.87658  0.29449  1
 O  O1  1  0.75000  0.49486  0.89376  1
 O  O2  1  0.25000  0.33879  0.33879  1
 O  O3  1  0.50000  0.87158  0.12842  1
 O  O4  1  0.75000  0.30440  0.56365  1
 O  O5  1  0.75000  0.66121  0.66121  1
 O  O6  1  0.00000  0.87158  0.12842  1
 O  O7  1  0.00000  0.12842  0.87158  1
 O  O8  1  0.25000  0.43635  0.69560  1
 O  O9  1  0.75000  0.89376  0.49486  1
 O  O10  1  0.25000  0.69560  0.43635  1
 O  O11  1  0.75000  0.56365  0.30440  1
 O  O12  1  0.25000  0.50514  0.10624  1
 O  O13  1  0.50000  0.12842  0.87158  1
 O  O14  1  0.25000  0.10624  0.50514  1
 Sr  Sr1  1  0.75000  0.18362  0.18362  1
 Sr  Sr2  1  0.25000  0.81638  0.81638  1
