CIF file written using JARVIS-Tools package.
data_Dy3CuGeSe7
_symmetry_space_group_name_H-M  'P6_3'
_cell_length_a       10.2722
_cell_length_b       10.2722
_cell_length_c       6.12361
_cell_angle_alpha    90
_cell_angle_beta     90
_cell_angle_gamma    120

_symmetry_Int_Tables_number  173
_chemical_formula_structural  Dy3CuGeSe7
_chemical_formula_sum  Dy6Cu2Ge2Se4
_cell_volume  559.5849512204688
_cell_formula_units_Z  2
loop_
  _symmetry_equiv_pos_site_id
 _symmetry_equiv_pos_as_xyz
 1  'x, y, z'
loop_
 _atom_site_type_symbol
 _atom_site_label
 _atom_site_symmetry_multiplicity
 _atom_site_fract_x
 _atom_site_fract_y
 _atom_site_fract_z
 _atom_site_fract_occupancy
 Cu  Cu1  1  0.00000  0.00000  0.47987  1
 Cu  Cu2  1  0.00000  0.00000  0.97987  1
 Dy  Dy1  1  0.21774  0.35702  0.41720  1
 Dy  Dy2  1  0.86072  0.21774  0.91720  1
 Dy  Dy3  1  0.35702  0.13928  0.91720  1
 Dy  Dy4  1  0.64298  0.86072  0.41720  1
 Dy  Dy5  1  0.13928  0.78226  0.41720  1
 Dy  Dy6  1  0.78226  0.64298  0.91720  1
 Ge  Ge1  1  0.66667  0.33333  0.33514  1
 Ge  Ge2  1  0.33333  0.66667  0.83514  1
 Se  Se1  1  0.26452  0.10647  0.45921  1
 Se  Se2  1  0.33333  0.66667  0.22162  1
 Se  Se3  1  0.10647  0.84195  0.95921  1
 Se  Se4  1  0.89353  0.15805  0.45921  1
 Se  Se5  1  0.84195  0.73548  0.45921  1
 Se  Se6  1  0.15805  0.26452  0.95921  1
 Se  Se7  1  0.90946  0.48109  0.16848  1
 Se  Se8  1  0.09054  0.51891  0.66848  1
 Se  Se9  1  0.42837  0.90946  0.66848  1
 Se  Se10  1  0.57163  0.09054  0.16848  1
 Se  Se11  1  0.73548  0.89353  0.95921  1
 Se  Se12  1  0.48109  0.57163  0.66848  1
 Se  Se13  1  0.51891  0.42837  0.16848  1
 Se  Se14  1  0.66667  0.33333  0.72162  1
