CIF file written using JARVIS-Tools package.
data_RbZnH2Se2BrO6
_symmetry_space_group_name_H-M  'P2/c'
_cell_length_a       6.51036
_cell_length_b       6.13286
_cell_length_c       10.8401
_cell_angle_alpha    90
_cell_angle_beta     103.059
_cell_angle_gamma    90

_symmetry_Int_Tables_number  13
_chemical_formula_structural  RbZnH2Se2BrO6
_chemical_formula_sum  Rb2Zn2H4Se4Br2O2
_cell_volume  421.62073109797353
_cell_formula_units_Z  2
loop_
  _symmetry_equiv_pos_site_id
 _symmetry_equiv_pos_as_xyz
 1  'x, y, z'
loop_
 _atom_site_type_symbol
 _atom_site_label
 _atom_site_symmetry_multiplicity
 _atom_site_fract_x
 _atom_site_fract_y
 _atom_site_fract_z
 _atom_site_fract_occupancy
 Br  Br1  1  0.50000  0.95154  0.75000  1
 Br  Br2  1  0.50000  0.04846  0.25000  1
 H  H1  1  0.07159  0.34407  0.09130  1
 H  H2  1  0.92841  0.34407  0.40870  1
 H  H3  1  0.07159  0.65593  0.59130  1
 H  H4  1  0.92841  0.65593  0.90870  1
 O  O1  1  0.75730  0.45245  0.88504  1
 O  O2  1  0.24270  0.45245  0.61496  1
 O  O3  1  0.68397  0.47949  0.61509  1
 O  O4  1  0.96801  0.78289  0.57894  1
 O  O5  1  0.03199  0.21711  0.42106  1
 O  O6  1  0.31603  0.52051  0.38491  1
 O  O7  1  0.75730  0.54755  0.38504  1
 O  O8  1  0.24270  0.54755  0.11496  1
 O  O9  1  0.68397  0.52051  0.11509  1
 O  O10  1  0.03199  0.78289  0.92106  1
 O  O11  1  0.31603  0.47949  0.88491  1
 O  O12  1  0.96801  0.21711  0.07894  1
 Rb  Rb1  1  -0.00000  0.16658  0.75000  1
 Rb  Rb2  1  -0.00000  0.83342  0.25000  1
 Se  Se1  1  0.29464  0.68825  0.98623  1
 Se  Se2  1  0.70536  0.68825  0.51377  1
 Se  Se3  1  0.29464  0.31175  0.48623  1
 Se  Se4  1  0.70536  0.31175  0.01377  1
 Zn  Zn1  1  0.50000  0.54868  0.75000  1
 Zn  Zn2  1  0.50000  0.45132  0.25000  1
