CIF file written using JARVIS-Tools package.
data_CdGeO3
_symmetry_space_group_name_H-M  'Pnma'
_cell_length_a       5.29725
_cell_length_b       5.3482
_cell_length_c       7.56118
_cell_angle_alpha    90
_cell_angle_beta     90
_cell_angle_gamma    90

_symmetry_Int_Tables_number  62
_chemical_formula_structural  CdGeO3
_chemical_formula_sum  Cd4Ge4O2
_cell_volume  214.2135944679062
_cell_formula_units_Z  4
loop_
  _symmetry_equiv_pos_site_id
 _symmetry_equiv_pos_as_xyz
 1  'x, y, z'
loop_
 _atom_site_type_symbol
 _atom_site_label
 _atom_site_symmetry_multiplicity
 _atom_site_fract_x
 _atom_site_fract_y
 _atom_site_fract_z
 _atom_site_fract_occupancy
 Cd  Cd1  1  0.00806  0.96486  0.75000  1
 Cd  Cd2  1  0.50806  0.53514  0.25000  1
 Cd  Cd3  1  0.49194  0.46486  0.75000  1
 Cd  Cd4  1  0.99194  0.03514  0.25000  1
 Ge  Ge1  1  0.00000  0.50000  0.50000  1
 Ge  Ge2  1  0.50000  0.00000  0.50000  1
 Ge  Ge3  1  0.50000  0.00000  0.00000  1
 Ge  Ge4  1  0.00000  0.50000  0.00000  1
 O  O1  1  0.70492  0.29036  0.45184  1
 O  O2  1  0.40896  0.97040  0.25000  1
 O  O3  1  0.79508  0.79036  0.04816  1
 O  O4  1  0.29508  0.70964  0.95184  1
 O  O5  1  0.20492  0.20964  0.54816  1
 O  O6  1  0.09104  0.47040  0.25000  1
 O  O7  1  0.20492  0.20964  0.95184  1
 O  O8  1  0.70492  0.29036  0.04816  1
 O  O9  1  0.29508  0.70964  0.54816  1
 O  O10  1  0.59104  0.02960  0.75000  1
 O  O11  1  0.79508  0.79036  0.45184  1
 O  O12  1  0.90896  0.52960  0.75000  1
