CIF file written using JARVIS-Tools package.
data_AgBF5
_symmetry_space_group_name_H-M  'P4/n'
_cell_length_a       6.63371
_cell_length_b       6.63371
_cell_length_c       4.05537
_cell_angle_alpha    90
_cell_angle_beta     90
_cell_angle_gamma    90

_symmetry_Int_Tables_number  85
_chemical_formula_structural  AgBF5
_chemical_formula_sum  Ag2B2F0
_cell_volume  178.46119331519262
_cell_formula_units_Z  2
loop_
  _symmetry_equiv_pos_site_id
 _symmetry_equiv_pos_as_xyz
 1  'x, y, z'
loop_
 _atom_site_type_symbol
 _atom_site_label
 _atom_site_symmetry_multiplicity
 _atom_site_fract_x
 _atom_site_fract_y
 _atom_site_fract_z
 _atom_site_fract_occupancy
 Ag  Ag1  1  0.00000  0.50000  0.80867  1
 Ag  Ag2  1  0.50000  0.00000  0.19133  1
 B  B1  1  0.50000  0.50000  0.00000  1
 B  B2  1  0.00000  0.00000  0.00000  1
 F  F1  1  0.50000  0.00000  0.69121  1
 F  F2  1  0.00000  0.50000  0.30879  1
 F  F3  1  0.08216  0.15456  0.79962  1
 F  F4  1  0.34544  0.58216  0.79962  1
 F  F5  1  0.84544  0.08216  0.20038  1
 F  F6  1  0.58216  0.65456  0.20038  1
 F  F7  1  0.41784  0.34544  0.20038  1
 F  F8  1  0.15456  0.91784  0.20038  1
 F  F9  1  0.65456  0.41784  0.79962  1
 F  F10  1  0.91784  0.84544  0.79962  1
