CIF file written using JARVIS-Tools package.
data_FeSnF6
_symmetry_space_group_name_H-M  'R-3'
_cell_length_a       5.61253
_cell_length_b       5.61254
_cell_length_c       5.61254
_cell_angle_alpha    54.423
_cell_angle_beta     54.423
_cell_angle_gamma    54.423

_symmetry_Int_Tables_number  148
_chemical_formula_structural  FeSnF6
_chemical_formula_sum  FeSnF6
_cell_volume  108.756192992404
_cell_formula_units_Z  1
loop_
  _symmetry_equiv_pos_site_id
 _symmetry_equiv_pos_as_xyz
 1  'x, y, z'
loop_
 _atom_site_type_symbol
 _atom_site_label
 _atom_site_symmetry_multiplicity
 _atom_site_fract_x
 _atom_site_fract_y
 _atom_site_fract_z
 _atom_site_fract_occupancy
 F  F1  1  0.25137  0.89213  0.60901  1
 F  F2  1  0.89213  0.60901  0.25137  1
 F  F3  1  0.39099  0.74863  0.10787  1
 F  F4  1  0.10787  0.39099  0.74863  1
 F  F5  1  0.74863  0.10787  0.39099  1
 F  F6  1  0.60901  0.25137  0.89213  1
 Fe  Fe1  1  0.50000  0.50000  0.50000  1
 Sn  Sn1  1  0.00000  0.00000  0.00000  1
