CIF file written using JARVIS-Tools package.
data_AgBi2Se3Cl
_symmetry_space_group_name_H-M  'P2_1/m'
_cell_length_a       8.12249
_cell_length_b       4.14307
_cell_length_c       11.2183
_cell_angle_alpha    90
_cell_angle_beta     104.321
_cell_angle_gamma    90

_symmetry_Int_Tables_number  11
_chemical_formula_structural  AgBi2Se3Cl
_chemical_formula_sum  Ag2Bi4Se6Cl2
_cell_volume  365.7877808489801
_cell_formula_units_Z  2
loop_
  _symmetry_equiv_pos_site_id
 _symmetry_equiv_pos_as_xyz
 1  'x, y, z'
loop_
 _atom_site_type_symbol
 _atom_site_label
 _atom_site_symmetry_multiplicity
 _atom_site_fract_x
 _atom_site_fract_y
 _atom_site_fract_z
 _atom_site_fract_occupancy
 Ag  Ag1  1  0.04996  0.75000  0.41288  1
 Ag  Ag2  1  0.95004  0.25000  0.58712  1
 Bi  Bi1  1  0.80772  0.25000  0.06674  1
 Bi  Bi2  1  0.19228  0.75000  0.93326  1
 Bi  Bi3  1  0.53239  0.75000  0.34119  1
 Bi  Bi4  1  0.46761  0.25000  0.65881  1
 Cl  Cl1  1  0.40609  0.25000  0.09800  1
 Cl  Cl2  1  0.59391  0.75000  0.90200  1
 Se  Se1  1  0.79763  0.25000  0.33539  1
 Se  Se2  1  0.95467  0.25000  0.84781  1
 Se  Se3  1  0.30939  0.25000  0.41075  1
 Se  Se4  1  0.69061  0.75000  0.58925  1
 Se  Se5  1  0.20237  0.75000  0.66461  1
 Se  Se6  1  0.04533  0.75000  0.15219  1
