CIF file written using JARVIS-Tools package.
data_KAgCl3
_symmetry_space_group_name_H-M  'Pm-3m'
_cell_length_a       5.06189
_cell_length_b       5.06173
_cell_length_c       5.06208
_cell_angle_alpha    90.0033
_cell_angle_beta     90.0056
_cell_angle_gamma    90.0001

_symmetry_Int_Tables_number  221
_chemical_formula_structural  KAgCl3
_chemical_formula_sum  KAgCl3
_cell_volume  129.7006887836164
_cell_formula_units_Z  1
loop_
  _symmetry_equiv_pos_site_id
 _symmetry_equiv_pos_as_xyz
 1  'x, y, z'
loop_
 _atom_site_type_symbol
 _atom_site_label
 _atom_site_symmetry_multiplicity
 _atom_site_fract_x
 _atom_site_fract_y
 _atom_site_fract_z
 _atom_site_fract_occupancy
 Ag  Ag1  1  0.49999  0.49801  0.48807  1
 Cl  Cl1  1  -0.00002  0.49800  0.48803  1
 Cl  Cl2  1  0.50002  0.49804  0.98807  1
 Cl  Cl3  1  0.50000  0.99800  0.48804  1
 K  K1  1  0.00001  0.99794  0.98779  1
