CIF file written using JARVIS-Tools package.
data_VZn2P2O9
_symmetry_space_group_name_H-M  'I4cm'
_cell_length_a       7.81155
_cell_length_b       7.81155
_cell_length_c       7.81155
_cell_angle_alpha    108.361
_cell_angle_beta     110.029
_cell_angle_gamma    110.029

_symmetry_Int_Tables_number  108
_chemical_formula_structural  VZn2P2O9
_chemical_formula_sum  V2Zn4P4O8
_cell_volume  366.83247489536205
_cell_formula_units_Z  2
loop_
  _symmetry_equiv_pos_site_id
 _symmetry_equiv_pos_as_xyz
 1  'x, y, z'
loop_
 _atom_site_type_symbol
 _atom_site_label
 _atom_site_symmetry_multiplicity
 _atom_site_fract_x
 _atom_site_fract_y
 _atom_site_fract_z
 _atom_site_fract_occupancy
 O  O1  1  0.50000  0.13399  0.84632  1
 O  O2  1  -0.00000  0.92424  0.92424  1
 O  O3  1  0.50000  0.34632  0.63399  1
 O  O4  1  0.96237  0.28700  0.97898  1
 O  O5  1  0.79325  0.61690  0.11690  1
 O  O6  1  0.69199  0.51662  0.47898  1
 O  O7  1  -0.00000  0.42424  0.42424  1
 O  O8  1  0.03763  0.82463  0.51662  1
 O  O9  1  0.96237  0.47898  0.78700  1
 O  O10  1  0.71234  0.84632  0.34632  1
 O  O11  1  0.50000  0.11690  0.32365  1
 O  O12  1  0.69199  0.97898  0.01662  1
 O  O13  1  0.30801  0.78700  0.82463  1
 O  O14  1  0.50000  0.82365  0.61690  1
 O  O15  1  0.30801  0.32463  0.28700  1
 O  O16  1  0.28766  0.63399  0.13399  1
 O  O17  1  0.03763  0.01662  0.32463  1
 O  O18  1  0.20675  0.32365  0.82365  1
 P  P1  1  0.11349  0.42736  0.92736  1
 P  P2  1  0.50000  0.92736  0.81387  1
 P  P3  1  0.88651  0.81387  0.31387  1
 P  P4  1  0.50000  0.31387  0.42736  1
 V  V1  1  0.00000  0.10051  0.10051  1
 V  V2  1  0.00000  0.60051  0.60051  1
 Zn  Zn1  1  0.73661  0.38495  0.88495  1
 Zn  Zn2  1  0.50000  0.64834  0.38495  1
 Zn  Zn3  1  0.50000  0.88495  0.14834  1
 Zn  Zn4  1  0.26339  0.14834  0.64834  1
