CIF file written using JARVIS-Tools package.
data_Fe3S4
_symmetry_space_group_name_H-M  'R3m'
_cell_length_a       12.4706
_cell_length_b       12.4706
_cell_length_c       12.4706
_cell_angle_alpha    14.2573
_cell_angle_beta     14.2573
_cell_angle_gamma    14.2574

_symmetry_Int_Tables_number  160
_chemical_formula_structural  Fe3S4
_chemical_formula_sum  Fe3S4
_cell_volume  102.39503327634495
_cell_formula_units_Z  1
loop_
  _symmetry_equiv_pos_site_id
 _symmetry_equiv_pos_as_xyz
 1  'x, y, z'
loop_
 _atom_site_type_symbol
 _atom_site_label
 _atom_site_symmetry_multiplicity
 _atom_site_fract_x
 _atom_site_fract_y
 _atom_site_fract_z
 _atom_site_fract_occupancy
 Fe  Fe1  1  0.45953  0.45953  0.45953  1
 Fe  Fe2  1  0.70078  0.70078  0.70078  1
 Fe  Fe3  1  0.88486  0.88486  0.88486  1
 S  S1  1  0.00020  0.00020  0.00020  1
 S  S2  1  0.08381  0.08381  0.08381  1
 S  S3  1  0.16864  0.16864  0.16864  1
 S  S4  1  0.25219  0.25219  0.25219  1
