CIF file written using JARVIS-Tools package.
data_Ba2Mg17
_symmetry_space_group_name_H-M  'R-3m'
_cell_length_a       8.02408
_cell_length_b       8.02408
_cell_length_c       8.02408
_cell_angle_alpha    82.8132
_cell_angle_beta     82.8132
_cell_angle_gamma    82.8131

_symmetry_Int_Tables_number  166
_chemical_formula_structural  Ba2Mg17
_chemical_formula_sum  Ba2Mg7
_cell_volume  505.39757374034275
_cell_formula_units_Z  1
loop_
  _symmetry_equiv_pos_site_id
 _symmetry_equiv_pos_as_xyz
 1  'x, y, z'
loop_
 _atom_site_type_symbol
 _atom_site_label
 _atom_site_symmetry_multiplicity
 _atom_site_fract_x
 _atom_site_fract_y
 _atom_site_fract_z
 _atom_site_fract_occupancy
 Ba  Ba1  1  0.33746  0.33746  0.33746  1
 Ba  Ba2  1  0.66254  0.66254  0.66254  1
 Mg  Mg1  1  0.34699  0.84566  0.34699  1
 Mg  Mg2  1  0.09808  0.09808  0.09808  1
 Mg  Mg3  1  0.90192  0.90192  0.90192  1
 Mg  Mg4  1  0.00000  0.00000  0.50000  1
 Mg  Mg5  1  0.50000  0.00000  -0.00000  1
 Mg  Mg6  1  0.00000  0.50000  -0.00000  1
 Mg  Mg7  1  0.29283  0.70717  0.00000  1
 Mg  Mg8  1  0.34699  0.34699  0.84566  1
 Mg  Mg9  1  0.70717  0.29283  -0.00000  1
 Mg  Mg10  1  0.00000  0.70717  0.29283  1
 Mg  Mg11  1  0.29283  0.00000  0.70717  1
 Mg  Mg12  1  0.65301  0.15434  0.65301  1
 Mg  Mg13  1  0.65301  0.65301  0.15434  1
 Mg  Mg14  1  0.15434  0.65301  0.65301  1
 Mg  Mg15  1  0.84566  0.34699  0.34699  1
 Mg  Mg16  1  -0.00000  0.29283  0.70717  1
 Mg  Mg17  1  0.70717  -0.00000  0.29283  1
