CIF file written using JARVIS-Tools package.
data_KRb2YF6
_symmetry_space_group_name_H-M  'P2_1/c'
_cell_length_a       6.48717
_cell_length_b       6.6574
_cell_length_c       11.2307
_cell_angle_alpha    90
_cell_angle_beta     124.874
_cell_angle_gamma    90

_symmetry_Int_Tables_number  14
_chemical_formula_structural  KRb2YF6
_chemical_formula_sum  K2Rb4Y2F2
_cell_volume  397.9256745122531
_cell_formula_units_Z  2
loop_
  _symmetry_equiv_pos_site_id
 _symmetry_equiv_pos_as_xyz
 1  'x, y, z'
loop_
 _atom_site_type_symbol
 _atom_site_label
 _atom_site_symmetry_multiplicity
 _atom_site_fract_x
 _atom_site_fract_y
 _atom_site_fract_z
 _atom_site_fract_occupancy
 F  F1  1  0.13679  0.96466  0.22731  1
 F  F2  1  0.76720  0.76830  0.44730  1
 F  F3  1  0.86321  0.03534  0.77269  1
 F  F4  1  0.23280  0.23170  0.55270  1
 F  F5  1  0.76720  0.73170  0.94730  1
 F  F6  1  0.23280  0.26830  0.05270  1
 F  F7  1  0.68618  0.18478  0.95784  1
 F  F8  1  0.68618  0.31522  0.45784  1
 F  F9  1  0.31382  0.81522  0.04216  1
 F  F10  1  0.13679  0.53534  0.72731  1
 F  F11  1  0.86321  0.46466  0.27269  1
 F  F12  1  0.31382  0.68478  0.54216  1
 K  K1  1  0.50000  0.00000  0.50000  1
 K  K2  1  0.50000  0.50000  0.00000  1
 Rb  Rb1  1  0.26383  0.54577  0.25124  1
 Rb  Rb2  1  0.26383  0.95423  0.75124  1
 Rb  Rb3  1  0.73617  0.04577  0.24876  1
 Rb  Rb4  1  0.73617  0.45423  0.74876  1
 Y  Y1  1  0.00000  0.00000  0.00000  1
 Y  Y2  1  -0.00000  0.50000  0.50000  1
