CIF file written using JARVIS-Tools package.
data_Rb2NiP2
_symmetry_space_group_name_H-M  'Cmcm'
_cell_length_a       7.69094
_cell_length_b       7.69094
_cell_length_c       5.75916
_cell_angle_alpha    90
_cell_angle_beta     90
_cell_angle_gamma    129.13

_symmetry_Int_Tables_number  63
_chemical_formula_structural  Rb2NiP2
_chemical_formula_sum  Rb4Ni2P4
_cell_volume  264.25453223185383
_cell_formula_units_Z  2
loop_
  _symmetry_equiv_pos_site_id
 _symmetry_equiv_pos_as_xyz
 1  'x, y, z'
loop_
 _atom_site_type_symbol
 _atom_site_label
 _atom_site_symmetry_multiplicity
 _atom_site_fract_x
 _atom_site_fract_y
 _atom_site_fract_z
 _atom_site_fract_occupancy
 Ni  Ni1  1  0.00000  0.00000  0.00000  1
 Ni  Ni2  1  0.00000  0.00000  0.50000  1
 P  P1  1  0.93088  0.73611  0.25000  1
 P  P2  1  0.06912  0.26389  0.75000  1
 P  P3  1  0.26389  0.06912  0.25000  1
 P  P4  1  0.73611  0.93088  0.75000  1
 Rb  Rb1  1  0.78674  0.21326  0.25000  1
 Rb  Rb2  1  0.21326  0.78674  0.75000  1
 Rb  Rb3  1  0.40970  0.59030  0.25000  1
 Rb  Rb4  1  0.59030  0.40970  0.75000  1
