CIF file written using JARVIS-Tools package.
data_BaAl2O4
_symmetry_space_group_name_H-M  'P6_3'
_cell_length_a       10.5586
_cell_length_b       10.5586
_cell_length_c       8.82611
_cell_angle_alpha    90
_cell_angle_beta     90
_cell_angle_gamma    120

_symmetry_Int_Tables_number  173
_chemical_formula_structural  BaAl2O4
_chemical_formula_sum  Ba8Al6O32
_cell_volume  852.1474550949769
_cell_formula_units_Z  8
loop_
  _symmetry_equiv_pos_site_id
 _symmetry_equiv_pos_as_xyz
 1  'x, y, z'
loop_
 _atom_site_type_symbol
 _atom_site_label
 _atom_site_symmetry_multiplicity
 _atom_site_fract_x
 _atom_site_fract_y
 _atom_site_fract_z
 _atom_site_fract_occupancy
 Al  Al1  1  0.66667  0.33333  0.94884  1
 Al  Al2  1  0.15309  0.32723  0.95108  1
 Al  Al3  1  0.33333  0.66667  0.04510  1
 Al  Al4  1  0.66667  0.33333  0.54510  1
 Al  Al5  1  0.33333  0.66667  0.44884  1
 Al  Al6  1  0.17415  0.84691  0.95108  1
 Al  Al7  1  0.32723  0.17415  0.45108  1
 Al  Al8  1  0.84691  0.67277  0.45108  1
 Al  Al9  1  0.82396  0.15457  0.06456  1
 Al  Al10  1  0.66938  0.82396  0.56456  1
 Al  Al11  1  0.15457  0.33062  0.56456  1
 Al  Al12  1  0.84543  0.66938  0.06456  1
 Al  Al13  1  0.17604  0.84543  0.56456  1
 Al  Al14  1  0.82585  0.15309  0.45108  1
 Al  Al15  1  0.67277  0.82585  0.95108  1
 Al  Al16  1  0.33062  0.17604  0.06456  1
 Ba  Ba1  1  0.50236  0.49304  0.75856  1
 Ba  Ba2  1  0.00000  0.00000  0.74455  1
 Ba  Ba3  1  0.49764  0.50696  0.25856  1
 Ba  Ba4  1  0.99068  0.49764  0.75856  1
 Ba  Ba5  1  0.50696  0.00932  0.75856  1
 Ba  Ba6  1  0.49304  0.99068  0.25856  1
 Ba  Ba7  1  0.00932  0.50236  0.25856  1
 Ba  Ba8  1  0.00000  0.00000  0.24455  1
 O  O1  1  0.49909  0.67849  0.50355  1
 O  O2  1  0.17940  0.50091  0.50355  1
 O  O3  1  0.82060  0.49909  0.00355  1
 O  O4  1  0.50091  0.32151  0.00355  1
 O  O5  1  0.32151  0.82060  0.50355  1
 O  O6  1  0.78756  0.10628  0.25780  1
 O  O7  1  0.68717  0.68710  0.04985  1
 O  O8  1  0.10628  0.31871  0.75780  1
 O  O9  1  0.89372  0.68129  0.25780  1
 O  O10  1  0.21244  0.89372  0.75780  1
 O  O11  1  0.66667  0.33333  0.74692  1
 O  O12  1  0.33333  0.66667  0.24692  1
 O  O13  1  0.67849  0.17940  0.00355  1
 O  O14  1  0.68129  0.78756  0.75780  1
 O  O15  1  0.31871  0.21244  0.25780  1
 O  O16  1  0.31283  0.31290  0.54985  1
 O  O17  1  0.68710  -0.00007  0.54985  1
 O  O18  1  0.50303  0.81806  0.98811  1
 O  O19  1  0.81945  0.82308  0.47835  1
 O  O20  1  0.99637  0.81945  0.97835  1
 O  O21  1  0.82308  0.00363  0.97835  1
 O  O22  1  0.00363  0.18055  0.47835  1
 O  O23  1  0.18055  0.17692  0.97835  1
 O  O24  1  0.17692  0.99637  0.47835  1
 O  O25  1  0.31290  0.00007  0.04985  1
 O  O26  1  -0.00007  0.31283  0.04985  1
 O  O27  1  0.68497  0.50303  0.48811  1
 O  O28  1  0.31503  0.49697  0.98811  1
 O  O29  1  0.81806  0.31503  0.48811  1
 O  O30  1  0.49697  0.18194  0.48811  1
 O  O31  1  0.18194  0.68497  0.98811  1
 O  O32  1  0.00007  0.68717  0.54985  1
