CIF file written using JARVIS-Tools package.
data_Tb
_symmetry_space_group_name_H-M  'P6_3/mmc'
_cell_length_a       3.53001
_cell_length_b       3.53001
_cell_length_c       17.146
_cell_angle_alpha    90
_cell_angle_beta     90
_cell_angle_gamma    120

_symmetry_Int_Tables_number  194
_chemical_formula_structural  Tb
_chemical_formula_sum  Tb6
_cell_volume  185.03063934676038
_cell_formula_units_Z  6
loop_
  _symmetry_equiv_pos_site_id
 _symmetry_equiv_pos_as_xyz
 1  'x, y, z'
loop_
 _atom_site_type_symbol
 _atom_site_label
 _atom_site_symmetry_multiplicity
 _atom_site_fract_x
 _atom_site_fract_y
 _atom_site_fract_z
 _atom_site_fract_occupancy
 Tb  Tb1  1  0.66667  0.33333  0.91648  1
 Tb  Tb2  1  0.00000  0.00000  0.25000  1
 Tb  Tb3  1  0.66667  0.33333  0.58352  1
 Tb  Tb4  1  0.33333  0.66667  0.41648  1
 Tb  Tb5  1  0.00000  0.00000  0.75000  1
 Tb  Tb6  1  0.33333  0.66667  0.08352  1
