CIF file written using JARVIS-Tools package.
data_RbBF4
_symmetry_space_group_name_H-M  'Pnma'
_cell_length_a       5.55474
_cell_length_b       7.22138
_cell_length_c       9.03412
_cell_angle_alpha    90
_cell_angle_beta     90
_cell_angle_gamma    90

_symmetry_Int_Tables_number  62
_chemical_formula_structural  RbBF4
_chemical_formula_sum  Rb4B4F6
_cell_volume  362.3848649278766
_cell_formula_units_Z  4
loop_
  _symmetry_equiv_pos_site_id
 _symmetry_equiv_pos_as_xyz
 1  'x, y, z'
loop_
 _atom_site_type_symbol
 _atom_site_label
 _atom_site_symmetry_multiplicity
 _atom_site_fract_x
 _atom_site_fract_y
 _atom_site_fract_z
 _atom_site_fract_occupancy
 B  B1  1  0.25000  0.69165  0.93544  1
 B  B2  1  0.25000  0.80835  0.43544  1
 B  B3  1  0.75000  0.19165  0.56456  1
 B  B4  1  0.75000  0.30835  0.06456  1
 F  F1  1  0.75000  0.06211  0.68210  1
 F  F2  1  0.54235  0.30617  0.57682  1
 F  F3  1  0.95765  0.19383  0.07682  1
 F  F4  1  0.45765  0.80617  0.92318  1
 F  F5  1  0.95765  0.30617  0.57682  1
 F  F6  1  0.25000  0.60173  0.07361  1
 F  F7  1  0.75000  0.39827  0.92639  1
 F  F8  1  0.04235  0.69383  0.42318  1
 F  F9  1  0.25000  0.89827  0.57361  1
 F  F10  1  0.45765  0.69383  0.42318  1
 F  F11  1  0.75000  0.43789  0.18210  1
 F  F12  1  0.75000  0.10173  0.42639  1
 F  F13  1  0.25000  0.93789  0.31790  1
 F  F14  1  0.04235  0.80617  0.92318  1
 F  F15  1  0.54235  0.19383  0.07682  1
 F  F16  1  0.25000  0.56211  0.81790  1
 Rb  Rb1  1  0.25000  0.33776  0.31570  1
 Rb  Rb2  1  0.75000  0.66224  0.68430  1
 Rb  Rb3  1  0.75000  0.83776  0.18430  1
 Rb  Rb4  1  0.25000  0.16224  0.81570  1
