CIF file written using JARVIS-Tools package.
data_Li2Fe3SnO8
_symmetry_space_group_name_H-M  'P6_3mc'
_cell_length_a       5.70957
_cell_length_b       5.70972
_cell_length_c       9.62998
_cell_angle_alpha    89.9995
_cell_angle_beta     90.0002
_cell_angle_gamma    120.001

_symmetry_Int_Tables_number  186
_chemical_formula_structural  Li2Fe3SnO8
_chemical_formula_sum  Li4Fe6Sn2O6
_cell_volume  271.8758914776786
_cell_formula_units_Z  2
loop_
  _symmetry_equiv_pos_site_id
 _symmetry_equiv_pos_as_xyz
 1  'x, y, z'
loop_
 _atom_site_type_symbol
 _atom_site_label
 _atom_site_symmetry_multiplicity
 _atom_site_fract_x
 _atom_site_fract_y
 _atom_site_fract_z
 _atom_site_fract_occupancy
 Fe  Fe1  1  0.17314  0.82696  0.21450  1
 Fe  Fe2  1  0.65390  0.82696  0.21450  1
 Fe  Fe3  1  0.17314  0.34620  0.21450  1
 Fe  Fe4  1  0.82686  0.17306  0.71450  1
 Fe  Fe5  1  0.82686  0.65382  0.71450  1
 Fe  Fe6  1  0.34610  0.17306  0.71450  1
 Li  Li1  1  0.33331  0.66668  0.89442  1
 Li  Li2  1  0.99992  -0.00004  0.49421  1
 Li  Li3  1  0.00008  0.00004  0.99421  1
 Li  Li4  1  0.66669  0.33337  0.39442  1
 O  O1  1  0.02966  0.51484  0.33358  1
 O  O2  1  0.15625  0.84369  0.60545  1
 O  O3  1  0.97034  0.48517  0.83358  1
 O  O4  1  0.33339  0.66671  0.10405  1
 O  O5  1  0.00007  0.00003  0.30663  1
 O  O6  1  0.99993  -0.00004  0.80663  1
 O  O7  1  0.15622  0.31256  0.60544  1
 O  O8  1  0.48523  0.51487  0.33361  1
 O  O9  1  0.84375  0.68744  0.10545  1
 O  O10  1  0.51476  0.48515  0.83360  1
 O  O11  1  0.51477  0.02965  0.83361  1
 O  O12  1  0.66661  0.33332  0.60405  1
 O  O13  1  0.48524  0.97039  0.33360  1
 O  O14  1  0.31266  0.15634  0.10547  1
 O  O15  1  0.68734  0.84369  0.60547  1
 O  O16  1  0.84378  0.15634  0.10544  1
 Sn  Sn1  1  0.66671  0.33337  0.99395  1
 Sn  Sn2  1  0.33329  0.66666  0.49395  1
