CIF file written using JARVIS-Tools package.
data_Li4VF6
_symmetry_space_group_name_H-M  'Pbam'
_cell_length_a       3.00784
_cell_length_b       8.16988
_cell_length_c       9.36574
_cell_angle_alpha    90
_cell_angle_beta     90
_cell_angle_gamma    90

_symmetry_Int_Tables_number  55
_chemical_formula_structural  Li4VF6
_chemical_formula_sum  Li8V2F2
_cell_volume  230.15054626729165
_cell_formula_units_Z  2
loop_
  _symmetry_equiv_pos_site_id
 _symmetry_equiv_pos_as_xyz
 1  'x, y, z'
loop_
 _atom_site_type_symbol
 _atom_site_label
 _atom_site_symmetry_multiplicity
 _atom_site_fract_x
 _atom_site_fract_y
 _atom_site_fract_z
 _atom_site_fract_occupancy
 F  F1  1  0.00000  0.90280  0.62773  1
 F  F2  1  0.50000  0.77193  0.38576  1
 F  F3  1  0.50000  0.22807  0.61424  1
 F  F4  1  0.00000  0.09720  0.37227  1
 F  F5  1  0.00000  0.40280  0.87227  1
 F  F6  1  0.00000  0.91564  0.11835  1
 F  F7  1  0.00000  0.58436  0.61835  1
 F  F8  1  0.00000  0.41564  0.38165  1
 F  F9  1  0.50000  0.72807  0.88576  1
 F  F10  1  0.00000  0.59720  0.12773  1
 F  F11  1  0.00000  0.08436  0.88165  1
 F  F12  1  0.50000  0.27193  0.11424  1
 Li  Li1  1  0.50000  0.19226  0.81350  1
 Li  Li2  1  0.00000  0.63618  0.42054  1
 Li  Li3  1  0.00000  0.86382  0.92054  1
 Li  Li4  1  0.50000  0.30774  0.31350  1
 Li  Li5  1  0.50000  0.69226  0.68650  1
 Li  Li6  1  0.00000  0.13618  0.07946  1
 Li  Li7  1  0.00000  0.36382  0.57946  1
 Li  Li8  1  0.50000  0.80774  0.18650  1
 V  V1  1  0.50000  0.50000  0.00000  1
 V  V2  1  0.50000  0.00000  0.50000  1
