CIF file written using JARVIS-Tools package.
data_Ni2S
_symmetry_space_group_name_H-M  'I4/mmm'
_cell_length_a       4.10192
_cell_length_b       3.23064
_cell_length_c       6.81388
_cell_angle_alpha    90
_cell_angle_beta     146.157
_cell_angle_gamma    66.8091

_symmetry_Int_Tables_number  139
_chemical_formula_structural  Ni2S
_chemical_formula_sum  Ni2S
_cell_volume  35.558242502265614
_cell_formula_units_Z  1
loop_
  _symmetry_equiv_pos_site_id
 _symmetry_equiv_pos_as_xyz
 1  'x, y, z'
loop_
 _atom_site_type_symbol
 _atom_site_label
 _atom_site_symmetry_multiplicity
 _atom_site_fract_x
 _atom_site_fract_y
 _atom_site_fract_z
 _atom_site_fract_occupancy
 Ni  Ni1  1  -0.00000  0.00000  0.51129  1
 Ni  Ni2  1  0.00000  -0.00000  0.15538  1
 S  S1  1  -0.00000  0.00000  0.83333  1
