CIF file written using JARVIS-Tools package.
data_ZrGaAu
_symmetry_space_group_name_H-M  'P-6m2'
_cell_length_a       4.37697
_cell_length_b       4.37697
_cell_length_c       6.76774
_cell_angle_alpha    90
_cell_angle_beta     90
_cell_angle_gamma    120

_symmetry_Int_Tables_number  187
_chemical_formula_structural  ZrGaAu
_chemical_formula_sum  Zr2Ga2Au2
_cell_volume  112.28506990729272
_cell_formula_units_Z  2
loop_
  _symmetry_equiv_pos_site_id
 _symmetry_equiv_pos_as_xyz
 1  'x, y, z'
loop_
 _atom_site_type_symbol
 _atom_site_label
 _atom_site_symmetry_multiplicity
 _atom_site_fract_x
 _atom_site_fract_y
 _atom_site_fract_z
 _atom_site_fract_occupancy
 Au  Au1  1  0.33333  0.66667  0.28521  1
 Au  Au2  1  0.33333  0.66667  0.71479  1
 Ga  Ga1  1  0.66667  0.33333  0.78682  1
 Ga  Ga2  1  0.66667  0.33333  0.21318  1
 Zr  Zr1  1  0.00000  0.00000  0.50000  1
 Zr  Zr2  1  0.00000  0.00000  0.00000  1
