CIF file written using JARVIS-Tools package.
data_KP2Rh2
_symmetry_space_group_name_H-M  'I4/mmm'
_cell_length_a       3.93417
_cell_length_b       3.93416
_cell_length_c       7.05455
_cell_angle_alpha    106.191
_cell_angle_beta     106.191
_cell_angle_gamma    90

_symmetry_Int_Tables_number  139
_chemical_formula_structural  KP2Rh2
_chemical_formula_sum  KP2Rh2
_cell_volume  100.33987973034547
_cell_formula_units_Z  1
loop_
  _symmetry_equiv_pos_site_id
 _symmetry_equiv_pos_as_xyz
 1  'x, y, z'
loop_
 _atom_site_type_symbol
 _atom_site_label
 _atom_site_symmetry_multiplicity
 _atom_site_fract_x
 _atom_site_fract_y
 _atom_site_fract_z
 _atom_site_fract_occupancy
 K  K1  1  0.00000  0.00000  0.00000  1
 P  P1  1  0.65062  0.65062  0.30125  1
 P  P2  1  0.34938  0.34938  0.69875  1
 Rh  Rh1  1  0.75000  0.25000  0.50000  1
 Rh  Rh2  1  0.25000  0.75000  0.50000  1
