CIF file written using JARVIS-Tools package.
data_MnCu2Cl4
_symmetry_space_group_name_H-M  'Amm2'
_cell_length_a       3.85335
_cell_length_b       7.43552
_cell_length_c       7.43552
_cell_angle_alpha    56.2362
_cell_angle_beta     58.786
_cell_angle_gamma    58.786

_symmetry_Int_Tables_number  38
_chemical_formula_structural  MnCu2Cl4
_chemical_formula_sum  MnCu2Cl4
_cell_volume  143.30935558650708
_cell_formula_units_Z  1
loop_
  _symmetry_equiv_pos_site_id
 _symmetry_equiv_pos_as_xyz
 1  'x, y, z'
loop_
 _atom_site_type_symbol
 _atom_site_label
 _atom_site_symmetry_multiplicity
 _atom_site_fract_x
 _atom_site_fract_y
 _atom_site_fract_z
 _atom_site_fract_occupancy
 Cl  Cl1  1  0.03840  0.00760  -0.04601  1
 Cl  Cl2  1  -0.00000  0.52692  0.97308  1
 Cl  Cl3  1  0.00000  0.02473  0.47527  1
 Cl  Cl4  1  0.96160  0.54601  0.49240  1
 Cu  Cu1  1  0.31361  0.11793  0.06845  1
 Cu  Cu2  1  0.68639  0.43155  0.38207  1
 Mn  Mn1  1  0.50000  0.77527  0.72473  1
