CIF file written using JARVIS-Tools package.
data_Li2Ni3SbO8
_symmetry_space_group_name_H-M  'P31c'
_cell_length_a       5.82081
_cell_length_b       5.82081
_cell_length_c       9.51378
_cell_angle_alpha    90
_cell_angle_beta     90
_cell_angle_gamma    120

_symmetry_Int_Tables_number  159
_chemical_formula_structural  Li2Ni3SbO8
_chemical_formula_sum  Li4Ni6Sb2O6
_cell_volume  279.15808015152857
_cell_formula_units_Z  2
loop_
  _symmetry_equiv_pos_site_id
 _symmetry_equiv_pos_as_xyz
 1  'x, y, z'
loop_
 _atom_site_type_symbol
 _atom_site_label
 _atom_site_symmetry_multiplicity
 _atom_site_fract_x
 _atom_site_fract_y
 _atom_site_fract_z
 _atom_site_fract_occupancy
 Li  Li1  1  0.66667  0.33333  0.09621  1
 Li  Li2  1  0.00000  0.00000  0.01002  1
 Li  Li3  1  0.00000  0.00000  0.51002  1
 Li  Li4  1  0.33333  0.66667  0.59621  1
 Ni  Ni1  1  0.83637  0.17480  0.78550  1
 Ni  Ni2  1  0.82520  0.66157  0.78550  1
 Ni  Ni3  1  0.33843  0.16363  0.78550  1
 Ni  Ni4  1  0.17480  0.83637  0.28550  1
 Ni  Ni5  1  0.16363  0.33843  0.28550  1
 Ni  Ni6  1  0.66157  0.82520  0.28550  1
 O  O1  1  0.48917  0.45909  0.65693  1
 O  O2  1  0.32290  0.14417  0.40679  1
 O  O3  1  0.45909  0.48917  0.15693  1
 O  O4  1  0.66667  0.33333  0.87986  1
 O  O5  1  0.00000  0.00000  0.70043  1
 O  O6  1  0.00000  0.00000  0.20043  1
 O  O7  1  0.82127  0.67710  0.40679  1
 O  O8  1  0.96992  0.51083  0.65693  1
 O  O9  1  0.14417  0.32290  0.90679  1
 O  O10  1  0.03008  0.54091  0.15693  1
 O  O11  1  0.51083  0.96992  0.15693  1
 O  O12  1  0.33333  0.66667  0.37986  1
 O  O13  1  0.54091  0.03008  0.65693  1
 O  O14  1  0.17873  0.85583  0.90679  1
 O  O15  1  0.85583  0.17873  0.40679  1
 O  O16  1  0.67710  0.82127  0.90679  1
 Sb  Sb1  1  0.33333  0.66667  0.01191  1
 Sb  Sb2  1  0.66667  0.33333  0.51191  1
