CIF file written using JARVIS-Tools package.
data_Hg
_symmetry_space_group_name_H-M  'C2/m'
_cell_length_a       3.49797
_cell_length_b       3.49701
_cell_length_c       8.56224
_cell_angle_alpha    78.0642
_cell_angle_beta     78.0518
_cell_angle_gamma    60.0359

_symmetry_Int_Tables_number  12
_chemical_formula_structural  Hg
_chemical_formula_sum  Hg3
_cell_volume  88.10873753769016
_cell_formula_units_Z  3
loop_
  _symmetry_equiv_pos_site_id
 _symmetry_equiv_pos_as_xyz
 1  'x, y, z'
loop_
 _atom_site_type_symbol
 _atom_site_label
 _atom_site_symmetry_multiplicity
 _atom_site_fract_x
 _atom_site_fract_y
 _atom_site_fract_z
 _atom_site_fract_occupancy
 Hg  Hg1  1  0.22189  0.22222  0.33533  1
 Hg  Hg2  1  0.77811  0.77778  0.66467  1
 Hg  Hg3  1  0.00000  0.00000  0.00000  1
