CIF file written using JARVIS-Tools package.
data_PaH3
_symmetry_space_group_name_H-M  'Pm-3n'
_cell_length_a       6.64695
_cell_length_b       6.64695
_cell_length_c       6.64695
_cell_angle_alpha    90
_cell_angle_beta     90
_cell_angle_gamma    90

_symmetry_Int_Tables_number  223
_chemical_formula_structural  PaH3
_chemical_formula_sum  Pa8H24
_cell_volume  293.6754533394025
_cell_formula_units_Z  8
loop_
  _symmetry_equiv_pos_site_id
 _symmetry_equiv_pos_as_xyz
 1  'x, y, z'
loop_
 _atom_site_type_symbol
 _atom_site_label
 _atom_site_symmetry_multiplicity
 _atom_site_fract_x
 _atom_site_fract_y
 _atom_site_fract_z
 _atom_site_fract_occupancy
 H  H1  1  0.69560  0.00000  0.15557  1
 H  H2  1  0.00000  0.15557  0.30440  1
 H  H3  1  0.50000  0.19560  0.65557  1
 H  H4  1  0.50000  0.80440  0.34443  1
 H  H5  1  0.80440  0.65557  0.50000  1
 H  H6  1  0.19560  0.65557  0.50000  1
 H  H7  1  0.34443  0.50000  0.80440  1
 H  H8  1  0.65557  0.50000  0.80440  1
 H  H9  1  0.50000  0.80440  0.65557  1
 H  H10  1  0.15557  0.30440  0.00000  1
 H  H11  1  0.84443  0.69560  0.00000  1
 H  H12  1  0.30440  0.00000  0.15557  1
 H  H13  1  0.84443  0.30440  0.00000  1
 H  H14  1  0.00000  0.84443  0.30440  1
 H  H15  1  0.19560  0.34443  0.50000  1
 H  H16  1  0.50000  0.19560  0.34443  1
 H  H17  1  0.34443  0.50000  0.19560  1
 H  H18  1  0.65557  0.50000  0.19560  1
 H  H19  1  0.80440  0.34443  0.50000  1
 H  H20  1  0.00000  0.15557  0.69560  1
 H  H21  1  0.00000  0.84443  0.69560  1
 H  H22  1  0.15557  0.69560  0.00000  1
 H  H23  1  0.69560  0.00000  0.84443  1
 H  H24  1  0.30440  0.00000  0.84443  1
 Pa  Pa1  1  0.50000  0.25000  0.00000  1
 Pa  Pa2  1  0.50000  0.75000  0.00000  1
 Pa  Pa3  1  0.00000  0.50000  0.75000  1
 Pa  Pa4  1  0.00000  0.50000  0.25000  1
 Pa  Pa5  1  0.75000  0.00000  0.50000  1
 Pa  Pa6  1  0.25000  0.00000  0.50000  1
 Pa  Pa7  1  0.50000  0.50000  0.50000  1
 Pa  Pa8  1  0.00000  0.00000  0.00000  1
