CIF file written using JARVIS-Tools package.
data_Sb2Pt
_symmetry_space_group_name_H-M  'Pa-3'
_cell_length_a       6.56306
_cell_length_b       6.56306
_cell_length_c       6.56306
_cell_angle_alpha    90
_cell_angle_beta     90
_cell_angle_gamma    90

_symmetry_Int_Tables_number  205
_chemical_formula_structural  Sb2Pt
_chemical_formula_sum  Sb8Pt4
_cell_volume  282.6960153094424
_cell_formula_units_Z  4
loop_
  _symmetry_equiv_pos_site_id
 _symmetry_equiv_pos_as_xyz
 1  'x, y, z'
loop_
 _atom_site_type_symbol
 _atom_site_label
 _atom_site_symmetry_multiplicity
 _atom_site_fract_x
 _atom_site_fract_y
 _atom_site_fract_z
 _atom_site_fract_occupancy
 Pt  Pt1  1  0.00000  0.50000  0.50000  1
 Pt  Pt2  1  0.50000  0.50000  0.00000  1
 Pt  Pt3  1  0.50000  0.00000  0.50000  1
 Pt  Pt4  1  0.00000  0.00000  0.00000  1
 Sb  Sb1  1  0.37484  0.12516  0.87484  1
 Sb  Sb2  1  0.12516  0.87484  0.37484  1
 Sb  Sb3  1  0.87484  0.37484  0.12516  1
 Sb  Sb4  1  0.62516  0.62516  0.62516  1
 Sb  Sb5  1  0.37484  0.37484  0.37484  1
 Sb  Sb6  1  0.12516  0.62516  0.87484  1
 Sb  Sb7  1  0.87484  0.12516  0.62516  1
 Sb  Sb8  1  0.62516  0.87484  0.12516  1
