CIF file written using JARVIS-Tools package.
data_SrIn2Pt
_symmetry_space_group_name_H-M  'Cmcm'
_cell_length_a       4.50556
_cell_length_b       5.94488
_cell_length_c       8.01763
_cell_angle_alpha    90
_cell_angle_beta     90
_cell_angle_gamma    112.268

_symmetry_Int_Tables_number  63
_chemical_formula_structural  SrIn2Pt
_chemical_formula_sum  Sr2In4Pt2
_cell_volume  198.736266313869
_cell_formula_units_Z  2
loop_
  _symmetry_equiv_pos_site_id
 _symmetry_equiv_pos_as_xyz
 1  'x, y, z'
loop_
 _atom_site_type_symbol
 _atom_site_label
 _atom_site_symmetry_multiplicity
 _atom_site_fract_x
 _atom_site_fract_y
 _atom_site_fract_z
 _atom_site_fract_occupancy
 In  In1  1  0.35148  0.70297  0.94714  1
 In  In2  1  0.35148  0.70297  0.55286  1
 In  In3  1  0.64852  0.29703  0.05286  1
 In  In4  1  0.64852  0.29703  0.44714  1
 Pt  Pt1  1  0.78027  0.56055  0.75000  1
 Pt  Pt2  1  0.21973  0.43945  0.25000  1
 Sr  Sr1  1  0.06376  0.12753  0.75000  1
 Sr  Sr2  1  0.93624  0.87247  0.25000  1
