CIF file written using JARVIS-Tools package.
data_TaO3
_symmetry_space_group_name_H-M  'P6_3/mmc'
_cell_length_a       4.6549
_cell_length_b       4.6549
_cell_length_c       3.7276
_cell_angle_alpha    90
_cell_angle_beta     90
_cell_angle_gamma    120

_symmetry_Int_Tables_number  194
_chemical_formula_structural  TaO3
_chemical_formula_sum  Ta2O6
_cell_volume  69.94865898765342
_cell_formula_units_Z  2
loop_
  _symmetry_equiv_pos_site_id
 _symmetry_equiv_pos_as_xyz
 1  'x, y, z'
loop_
 _atom_site_type_symbol
 _atom_site_label
 _atom_site_symmetry_multiplicity
 _atom_site_fract_x
 _atom_site_fract_y
 _atom_site_fract_z
 _atom_site_fract_occupancy
 O  O1  1  0.64092  0.82046  0.75000  1
 O  O2  1  0.17954  0.35908  0.75000  1
 O  O3  1  0.17954  0.82046  0.75000  1
 O  O4  1  0.35908  0.17954  0.25000  1
 O  O5  1  0.82046  0.64092  0.25000  1
 O  O6  1  0.82046  0.17954  0.25000  1
 Ta  Ta1  1  0.33333  0.66667  0.25000  1
 Ta  Ta2  1  0.66667  0.33333  0.75000  1
