CIF file written using JARVIS-Tools package.
data_Li4MnCo3P4O16
_symmetry_space_group_name_H-M  'Pm'
_cell_length_a       4.71248
_cell_length_b       5.95008
_cell_length_c       10.2541
_cell_angle_alpha    90
_cell_angle_beta     89.8071
_cell_angle_gamma    90

_symmetry_Int_Tables_number  6
_chemical_formula_structural  Li4MnCo3P4O16
_chemical_formula_sum  Li4MnCo3P4O6
_cell_volume  287.5183745972452
_cell_formula_units_Z  1
loop_
  _symmetry_equiv_pos_site_id
 _symmetry_equiv_pos_as_xyz
 1  'x, y, z'
loop_
 _atom_site_type_symbol
 _atom_site_label
 _atom_site_symmetry_multiplicity
 _atom_site_fract_x
 _atom_site_fract_y
 _atom_site_fract_z
 _atom_site_fract_occupancy
 Co  Co1  1  0.97977  0.50000  0.72313  1
 Co  Co2  1  0.51990  0.50000  0.21965  1
 Co  Co3  1  0.47707  0.00000  0.77817  1
 Li  Li1  1  0.99643  0.25070  0.99632  1
 Li  Li2  1  0.99643  0.74930  0.99632  1
 Li  Li3  1  0.50247  0.74792  0.50336  1
 Li  Li4  1  0.50247  0.25208  0.50336  1
 Mn  Mn1  1  0.01869  0.00000  0.27939  1
 O  O1  1  0.78449  0.20729  0.66964  1
 O  O2  1  0.70993  0.20707  0.16188  1
 O  O3  1  0.74404  0.50000  0.90421  1
 O  O4  1  0.79197  0.00000  0.45853  1
 O  O5  1  0.78449  0.79271  0.66964  1
 O  O6  1  0.22558  0.29466  0.33638  1
 O  O7  1  0.70703  0.00000  0.95032  1
 O  O8  1  0.76091  0.50000  0.40440  1
 O  O9  1  0.28942  0.50000  0.04466  1
 O  O10  1  0.24528  0.00000  0.59730  1
 O  O11  1  0.28340  0.29339  0.83262  1
 O  O12  1  0.25121  0.00000  0.09090  1
 O  O13  1  0.70993  0.79293  0.16188  1
 O  O14  1  0.22558  0.70534  0.33638  1
 O  O15  1  0.28340  0.70661  0.83262  1
 O  O16  1  0.20883  0.50000  0.54840  1
 P  P1  1  0.92037  0.00000  0.59785  1
 P  P2  1  0.57601  0.00000  0.08933  1
 P  P3  1  0.41907  0.50000  0.90529  1
 P  P4  1  0.08585  0.50000  0.40804  1
