CIF file written using JARVIS-Tools package.
data_Na2AlNiF7
_symmetry_space_group_name_H-M  'Imma'
_cell_length_a       7.06249
_cell_length_b       7.18243
_cell_length_c       7.18242
_cell_angle_alpha    61.8013
_cell_angle_beta     60.5509
_cell_angle_gamma    60.5509

_symmetry_Int_Tables_number  74
_chemical_formula_structural  Na2AlNiF7
_chemical_formula_sum  Na4Al2Ni2F4
_cell_volume  263.1575811528991
_cell_formula_units_Z  2
loop_
  _symmetry_equiv_pos_site_id
 _symmetry_equiv_pos_as_xyz
 1  'x, y, z'
loop_
 _atom_site_type_symbol
 _atom_site_label
 _atom_site_symmetry_multiplicity
 _atom_site_fract_x
 _atom_site_fract_y
 _atom_site_fract_z
 _atom_site_fract_occupancy
 Al  Al1  1  0.50000  0.00000  0.00000  1
 Al  Al2  1  -0.00000  0.50000  0.50000  1
 F  F1  1  0.42395  0.95165  0.82283  1
 F  F2  1  0.19843  0.04835  0.17717  1
 F  F3  1  0.69843  0.67717  0.54835  1
 F  F4  1  0.30157  0.32283  0.45165  1
 F  F5  1  0.08448  0.63806  0.19298  1
 F  F6  1  0.57605  0.04835  0.17717  1
 F  F7  1  0.75000  0.12506  0.37494  1
 F  F8  1  0.25000  0.87494  0.62506  1
 F  F9  1  0.91552  0.36194  0.80702  1
 F  F10  1  0.92395  0.32283  0.45165  1
 F  F11  1  0.58448  0.69298  0.13806  1
 F  F12  1  0.07605  0.67717  0.54835  1
 F  F13  1  0.80157  0.95165  0.82283  1
 F  F14  1  0.41552  0.30702  0.86194  1
 Na  Na1  1  0.00000  0.00000  0.00000  1
 Na  Na2  1  0.50000  0.50000  0.50000  1
 Na  Na3  1  0.00000  0.50000  0.00000  1
 Na  Na4  1  0.50000  0.50000  0.00000  1
 Ni  Ni1  1  0.50000  0.00000  0.50000  1
 Ni  Ni2  1  -0.00000  0.00000  0.50000  1
