CIF file written using JARVIS-Tools package.
data_Dy3Se4
_symmetry_space_group_name_H-M  'I-43d'
_cell_length_a       7.50229
_cell_length_b       7.50229
_cell_length_c       7.50229
_cell_angle_alpha    109.471
_cell_angle_beta     109.471
_cell_angle_gamma    109.471

_symmetry_Int_Tables_number  220
_chemical_formula_structural  Dy3Se4
_chemical_formula_sum  Dy6Se8
_cell_volume  325.05735169052673
_cell_formula_units_Z  2
loop_
  _symmetry_equiv_pos_site_id
 _symmetry_equiv_pos_as_xyz
 1  'x, y, z'
loop_
 _atom_site_type_symbol
 _atom_site_label
 _atom_site_symmetry_multiplicity
 _atom_site_fract_x
 _atom_site_fract_y
 _atom_site_fract_z
 _atom_site_fract_occupancy
 Dy  Dy1  1  0.12500  0.75000  0.87500  1
 Dy  Dy2  1  0.62500  0.37500  0.25000  1
 Dy  Dy3  1  0.37500  0.25000  0.62500  1
 Dy  Dy4  1  0.75000  0.87500  0.12500  1
 Dy  Dy5  1  0.25000  0.62500  0.37500  1
 Dy  Dy6  1  0.87500  0.12500  0.75000  1
 Se  Se1  1  0.64249  0.64249  0.64249  1
 Se  Se2  1  -0.00000  0.85751  0.50000  1
 Se  Se3  1  0.85751  0.50000  0.00000  1
 Se  Se4  1  -0.00000  0.35751  0.50000  1
 Se  Se5  1  0.50000  0.00000  0.85751  1
 Se  Se6  1  0.50000  0.00000  0.35751  1
 Se  Se7  1  0.35751  0.50000  0.00000  1
 Se  Se8  1  0.14249  0.14249  0.14249  1
