CIF file written using JARVIS-Tools package.
data_Cr2S3
_symmetry_space_group_name_H-M  'P312'
_cell_length_a       5.98403
_cell_length_b       5.98403
_cell_length_c       10.849
_cell_angle_alpha    90
_cell_angle_beta     90
_cell_angle_gamma    120

_symmetry_Int_Tables_number  149
_chemical_formula_structural  Cr2S3
_chemical_formula_sum  Cr8S2
_cell_volume  336.4396221614332
_cell_formula_units_Z  4
loop_
  _symmetry_equiv_pos_site_id
 _symmetry_equiv_pos_as_xyz
 1  'x, y, z'
loop_
 _atom_site_type_symbol
 _atom_site_label
 _atom_site_symmetry_multiplicity
 _atom_site_fract_x
 _atom_site_fract_y
 _atom_site_fract_z
 _atom_site_fract_occupancy
 Cr  Cr1  1  0.33333  0.66667  0.25000  1
 Cr  Cr2  1  0.33333  0.66667  0.99634  1
 Cr  Cr3  1  0.00000  0.00000  0.00535  1
 Cr  Cr4  1  0.66667  0.33333  0.75000  1
 Cr  Cr5  1  0.66667  0.33333  0.47893  1
 Cr  Cr6  1  0.33333  0.66667  0.50367  1
 Cr  Cr7  1  0.00000  0.00000  0.49465  1
 Cr  Cr8  1  0.66667  0.33333  0.02107  1
 S  S1  1  0.98680  0.65843  0.61650  1
 S  S2  1  0.34157  0.01320  0.88350  1
 S  S3  1  0.66088  0.67326  0.37235  1
 S  S4  1  0.67164  0.01320  0.61650  1
 S  S5  1  0.66088  0.98762  0.12765  1
 S  S6  1  0.34157  0.32836  0.61650  1
 S  S7  1  0.32674  0.98762  0.37235  1
 S  S8  1  0.98680  0.32837  0.88350  1
 S  S9  1  0.32674  0.33912  0.12765  1
 S  S10  1  0.01238  0.67326  0.12765  1
 S  S11  1  0.01238  0.33912  0.37235  1
 S  S12  1  0.67163  0.65843  0.88350  1
