CIF file written using JARVIS-Tools package.
data_NaSr3TaO6
_symmetry_space_group_name_H-M  'R-3c'
_cell_length_a       6.87581
_cell_length_b       6.87581
_cell_length_c       6.87581
_cell_angle_alpha    91.2782
_cell_angle_beta     91.2782
_cell_angle_gamma    91.2782

_symmetry_Int_Tables_number  167
_chemical_formula_structural  NaSr3TaO6
_chemical_formula_sum  Na2Sr6Ta2O2
_cell_volume  324.81994626153664
_cell_formula_units_Z  2
loop_
  _symmetry_equiv_pos_site_id
 _symmetry_equiv_pos_as_xyz
 1  'x, y, z'
loop_
 _atom_site_type_symbol
 _atom_site_label
 _atom_site_symmetry_multiplicity
 _atom_site_fract_x
 _atom_site_fract_y
 _atom_site_fract_z
 _atom_site_fract_occupancy
 Na  Na1  1  0.25000  0.25000  0.25000  1
 Na  Na2  1  0.75000  0.75000  0.75000  1
 O  O1  1  0.92605  0.05405  0.72061  1
 O  O2  1  0.05405  0.72061  0.92605  1
 O  O3  1  0.44595  0.57395  0.77939  1
 O  O4  1  0.57395  0.77939  0.44595  1
 O  O5  1  0.77939  0.44595  0.57395  1
 O  O6  1  0.27939  0.07395  0.94595  1
 O  O7  1  0.07395  0.94595  0.27939  1
 O  O8  1  0.94595  0.27939  0.07395  1
 O  O9  1  0.72061  0.92605  0.05405  1
 O  O10  1  0.42605  0.22061  0.55405  1
 O  O11  1  0.55405  0.42605  0.22061  1
 O  O12  1  0.22061  0.55405  0.42605  1
 Sr  Sr1  1  0.10127  0.39873  0.75000  1
 Sr  Sr2  1  0.39873  0.75000  0.10127  1
 Sr  Sr3  1  0.75000  0.10127  0.39873  1
 Sr  Sr4  1  0.89873  0.60127  0.25000  1
 Sr  Sr5  1  0.60127  0.25000  0.89873  1
 Sr  Sr6  1  0.25000  0.89873  0.60127  1
 Ta  Ta1  1  0.00000  0.00000  0.00000  1
 Ta  Ta2  1  0.50000  0.50000  0.50000  1
