CIF file written using JARVIS-Tools package.
data_KNaGeO3
_symmetry_space_group_name_H-M  'Pna2_1'
_cell_length_a       4.80182
_cell_length_b       6.90716
_cell_length_c       10.7364
_cell_angle_alpha    90
_cell_angle_beta     90
_cell_angle_gamma    90

_symmetry_Int_Tables_number  33
_chemical_formula_structural  KNaGeO3
_chemical_formula_sum  K4Na4Ge4O2
_cell_volume  356.0955842361338
_cell_formula_units_Z  4
loop_
  _symmetry_equiv_pos_site_id
 _symmetry_equiv_pos_as_xyz
 1  'x, y, z'
loop_
 _atom_site_type_symbol
 _atom_site_label
 _atom_site_symmetry_multiplicity
 _atom_site_fract_x
 _atom_site_fract_y
 _atom_site_fract_z
 _atom_site_fract_occupancy
 Ge  Ge1  1  0.00124  0.63194  0.54972  1
 Ge  Ge2  1  0.50124  0.36806  0.45028  1
 Ge  Ge3  1  0.50124  0.86806  0.04972  1
 Ge  Ge4  1  0.00124  0.13194  0.95028  1
 K  K1  1  0.52509  0.88600  0.73581  1
 K  K2  1  0.02509  0.11400  0.26419  1
 K  K3  1  0.02509  0.61400  0.23581  1
 K  K4  1  0.52509  0.38600  0.76419  1
 Na  Na1  1  0.03946  0.62147  0.91710  1
 Na  Na2  1  0.53946  0.37853  0.08290  1
 Na  Na3  1  0.03946  0.12147  0.58290  1
 Na  Na4  1  0.53946  0.87853  0.41710  1
 O  O1  1  0.55772  0.66061  0.95813  1
 O  O2  1  0.05772  0.33939  0.04187  1
 O  O3  1  0.62282  0.08640  0.96822  1
 O  O4  1  0.06838  0.63955  0.70825  1
 O  O5  1  0.12282  0.41360  0.46822  1
 O  O6  1  0.55772  0.16061  0.54187  1
 O  O7  1  0.56838  0.86045  0.20825  1
 O  O8  1  0.12282  0.91360  0.03178  1
 O  O9  1  0.05772  0.83939  0.45813  1
 O  O10  1  0.56838  0.36045  0.29175  1
 O  O11  1  0.62282  0.58640  0.53178  1
 O  O12  1  0.06838  0.13955  0.79175  1
