CIF file written using JARVIS-Tools package.
data_LiMnPO4
_symmetry_space_group_name_H-M  'Cmcm'
_cell_length_a       5.61233
_cell_length_b       6.23946
_cell_length_c       8.39125
_cell_angle_alpha    90
_cell_angle_beta     90
_cell_angle_gamma    90

_symmetry_Int_Tables_number  63
_chemical_formula_structural  LiMnPO4
_chemical_formula_sum  Li4Mn4P4O6
_cell_volume  293.8441412542695
_cell_formula_units_Z  4
loop_
  _symmetry_equiv_pos_site_id
 _symmetry_equiv_pos_as_xyz
 1  'x, y, z'
loop_
 _atom_site_type_symbol
 _atom_site_label
 _atom_site_symmetry_multiplicity
 _atom_site_fract_x
 _atom_site_fract_y
 _atom_site_fract_z
 _atom_site_fract_occupancy
 Li  Li1  1  0.75000  0.75003  0.91614  1
 Li  Li2  1  0.25000  0.74997  0.41614  1
 Li  Li3  1  0.75000  0.25003  0.58386  1
 Li  Li4  1  0.25000  0.24997  0.08386  1
 Mn  Mn1  1  0.25000  -0.00002  0.74998  1
 Mn  Mn2  1  0.75000  0.50002  0.24998  1
 Mn  Mn3  1  0.25000  0.49998  0.75002  1
 Mn  Mn4  1  0.75000  0.00002  0.25002  1
 O  O1  1  0.25000  0.95379  0.00098  1
 O  O2  1  0.52816  0.74998  0.71906  1
 O  O3  1  0.97184  0.74998  0.71906  1
 O  O4  1  0.75000  0.95380  0.50100  1
 O  O5  1  0.02816  0.75002  0.21906  1
 O  O6  1  0.75000  0.04621  0.99902  1
 O  O7  1  0.25000  0.54620  0.00100  1
 O  O8  1  0.47184  0.75002  0.21906  1
 O  O9  1  0.75000  0.45380  0.99900  1
 O  O10  1  0.97184  0.24998  0.78094  1
 O  O11  1  0.47184  0.25002  0.28094  1
 O  O12  1  0.02816  0.25002  0.28094  1
 O  O13  1  0.75000  0.54621  0.50098  1
 O  O14  1  0.52816  0.24998  0.78094  1
 O  O15  1  0.25000  0.45379  0.49902  1
 O  O16  1  0.25000  0.04620  0.49900  1
 P  P1  1  0.75000  0.74999  0.60382  1
 P  P2  1  0.25000  0.75001  0.10382  1
 P  P3  1  0.75000  0.24999  0.89618  1
 P  P4  1  0.25000  0.25001  0.39618  1
