CIF file written using JARVIS-Tools package.
data_KTe
_symmetry_space_group_name_H-M  'P-62m'
_cell_length_a       9.48791
_cell_length_b       9.48791
_cell_length_c       6.46099
_cell_angle_alpha    90
_cell_angle_beta     90
_cell_angle_gamma    120

_symmetry_Int_Tables_number  189
_chemical_formula_structural  KTe
_chemical_formula_sum  K6Te6
_cell_volume  503.69850447252713
_cell_formula_units_Z  6
loop_
  _symmetry_equiv_pos_site_id
 _symmetry_equiv_pos_as_xyz
 1  'x, y, z'
loop_
 _atom_site_type_symbol
 _atom_site_label
 _atom_site_symmetry_multiplicity
 _atom_site_fract_x
 _atom_site_fract_y
 _atom_site_fract_z
 _atom_site_fract_occupancy
 K  K1  1  0.65487  0.00000  0.00000  1
 K  K2  1  0.34513  0.34513  0.00000  1
 K  K3  1  0.00000  0.65487  0.00000  1
 K  K4  1  0.32173  0.00000  0.50000  1
 K  K5  1  0.67827  0.67827  0.50000  1
 K  K6  1  0.00000  0.32173  0.50000  1
 Te  Te1  1  0.00000  0.00000  0.22032  1
 Te  Te2  1  0.00000  0.00000  0.77968  1
 Te  Te3  1  0.33333  0.66667  0.27762  1
 Te  Te4  1  0.33333  0.66667  0.72238  1
 Te  Te5  1  0.66667  0.33333  0.72238  1
 Te  Te6  1  0.66667  0.33333  0.27762  1
