CIF file written using JARVIS-Tools package.
data_FeTeO3F
_symmetry_space_group_name_H-M  'P2_1/c'
_cell_length_a       5.09322
_cell_length_b       5.05163
_cell_length_c       12.9537
_cell_angle_alpha    90
_cell_angle_beta     105.896
_cell_angle_gamma    90

_symmetry_Int_Tables_number  14
_chemical_formula_structural  FeTeO3F
_chemical_formula_sum  Fe4Te4O2F4
_cell_volume  320.5424311895316
_cell_formula_units_Z  4
loop_
  _symmetry_equiv_pos_site_id
 _symmetry_equiv_pos_as_xyz
 1  'x, y, z'
loop_
 _atom_site_type_symbol
 _atom_site_label
 _atom_site_symmetry_multiplicity
 _atom_site_fract_x
 _atom_site_fract_y
 _atom_site_fract_z
 _atom_site_fract_occupancy
 F  F1  1  0.75202  0.93246  0.48455  1
 F  F2  1  0.24798  0.43246  0.01545  1
 F  F3  1  0.24798  0.06754  0.51545  1
 F  F4  1  0.75202  0.56754  0.98455  1
 Fe  Fe1  1  0.11059  0.75980  0.07310  1
 Fe  Fe2  1  0.88941  0.24020  0.92690  1
 Fe  Fe3  1  0.88941  0.25980  0.42690  1
 Fe  Fe4  1  0.11059  0.74020  0.57310  1
 O  O1  1  0.44979  0.59688  0.66209  1
 O  O2  1  0.44979  0.90312  0.16209  1
 O  O3  1  0.55021  0.40312  0.33791  1
 O  O4  1  0.13273  0.93130  0.93083  1
 O  O5  1  0.06388  0.91593  0.70182  1
 O  O6  1  0.86727  0.06870  0.06917  1
 O  O7  1  0.13273  0.56870  0.43083  1
 O  O8  1  0.93612  0.41593  0.79818  1
 O  O9  1  0.55021  0.09688  0.83791  1
 O  O10  1  0.86727  0.43130  0.56917  1
 O  O11  1  0.93612  0.08407  0.29818  1
 O  O12  1  0.06388  0.58407  0.20182  1
 Te  Te1  1  0.68072  0.21283  0.16903  1
 Te  Te2  1  0.68072  0.28717  0.66903  1
 Te  Te3  1  0.31928  0.78717  0.83097  1
 Te  Te4  1  0.31928  0.71283  0.33097  1
