CIF file written using JARVIS-Tools package.
data_Ir3Se8
_symmetry_space_group_name_H-M  'R-3'
_cell_length_a       6.05699
_cell_length_b       6.05699
_cell_length_c       6.057
_cell_angle_alpha    90.4342
_cell_angle_beta     90.4342
_cell_angle_gamma    90.4342

_symmetry_Int_Tables_number  148
_chemical_formula_structural  Ir3Se8
_chemical_formula_sum  Ir3Se8
_cell_volume  222.1949508003716
_cell_formula_units_Z  1
loop_
  _symmetry_equiv_pos_site_id
 _symmetry_equiv_pos_as_xyz
 1  'x, y, z'
loop_
 _atom_site_type_symbol
 _atom_site_label
 _atom_site_symmetry_multiplicity
 _atom_site_fract_x
 _atom_site_fract_y
 _atom_site_fract_z
 _atom_site_fract_occupancy
 Ir  Ir1  1  0.50000  -0.00000  0.50000  1
 Ir  Ir2  1  -0.00000  0.50000  0.50000  1
 Ir  Ir3  1  0.50000  0.50000  -0.00000  1
 Se  Se1  1  0.37956  0.11577  0.87905  1
 Se  Se2  1  0.11577  0.87905  0.37956  1
 Se  Se3  1  0.87905  0.37956  0.11577  1
 Se  Se4  1  0.37344  0.37344  0.37344  1
 Se  Se5  1  0.62656  0.62656  0.62656  1
 Se  Se6  1  0.12095  0.62044  0.88423  1
 Se  Se7  1  0.88423  0.12095  0.62044  1
 Se  Se8  1  0.62044  0.88423  0.12095  1
