CIF file written using JARVIS-Tools package.
data_Na3In2Au
_symmetry_space_group_name_H-M  'Fd-3m'
_cell_length_a       9.62039
_cell_length_b       9.6204
_cell_length_c       9.62039
_cell_angle_alpha    60
_cell_angle_beta     60
_cell_angle_gamma    60

_symmetry_Int_Tables_number  227
_chemical_formula_structural  Na3In2Au
_chemical_formula_sum  Na2In8Au4
_cell_volume  629.5980133511465
_cell_formula_units_Z  4
loop_
  _symmetry_equiv_pos_site_id
 _symmetry_equiv_pos_as_xyz
 1  'x, y, z'
loop_
 _atom_site_type_symbol
 _atom_site_label
 _atom_site_symmetry_multiplicity
 _atom_site_fract_x
 _atom_site_fract_y
 _atom_site_fract_z
 _atom_site_fract_occupancy
 Au  Au1  1  0.00000  0.00000  0.00000  1
 Au  Au2  1  0.50000  0.00000  -0.00000  1
 Au  Au3  1  0.00000  0.50000  0.00000  1
 Au  Au4  1  0.00000  0.00000  0.50000  1
 In  In1  1  0.20992  0.20992  0.87023  1
 In  In2  1  0.20992  0.20992  0.20992  1
 In  In3  1  0.79008  0.79008  0.12977  1
 In  In4  1  0.12977  0.79008  0.79008  1
 In  In5  1  0.79008  0.12977  0.79008  1
 In  In6  1  0.87023  0.20992  0.20992  1
 In  In7  1  0.20992  0.87023  0.20992  1
 In  In8  1  0.79008  0.79008  0.79008  1
 Na  Na1  1  0.42070  0.82930  0.82930  1
 Na  Na2  1  0.57930  0.57930  0.17070  1
 Na  Na3  1  0.17070  0.17070  0.57930  1
 Na  Na4  1  0.57930  0.17070  0.17070  1
 Na  Na5  1  0.57930  0.17070  0.57930  1
 Na  Na6  1  0.17070  0.57930  0.17070  1
 Na  Na7  1  0.42070  0.82930  0.42070  1
 Na  Na8  1  0.42070  0.42070  0.82930  1
 Na  Na9  1  0.82930  0.82930  0.42070  1
 Na  Na10  1  0.82930  0.42070  0.82930  1
 Na  Na11  1  0.82930  0.42070  0.42070  1
 Na  Na12  1  0.17070  0.57930  0.57930  1
