CIF file written using JARVIS-Tools package.
data_LiGaSiO4
_symmetry_space_group_name_H-M  'R3'
_cell_length_a       8.4979
_cell_length_b       8.4979
_cell_length_c       8.4979
_cell_angle_alpha    107.851
_cell_angle_beta     107.851
_cell_angle_gamma    107.851

_symmetry_Int_Tables_number  146
_chemical_formula_structural  LiGaSiO4
_chemical_formula_sum  Li6Ga6Si6O24
_cell_volume  498.7365151591947
_cell_formula_units_Z  6
loop_
  _symmetry_equiv_pos_site_id
 _symmetry_equiv_pos_as_xyz
 1  'x, y, z'
loop_
 _atom_site_type_symbol
 _atom_site_label
 _atom_site_symmetry_multiplicity
 _atom_site_fract_x
 _atom_site_fract_y
 _atom_site_fract_z
 _atom_site_fract_occupancy
 Ga  Ga1  1  0.05407  0.45945  0.23418  1
 Ga  Ga2  1  0.53414  0.76860  0.94462  1
 Ga  Ga3  1  0.94462  0.53414  0.76860  1
 Ga  Ga4  1  0.23418  0.05407  0.45945  1
 Ga  Ga5  1  0.45945  0.23418  0.05407  1
 Ga  Ga6  1  0.76860  0.94462  0.53414  1
 Li  Li1  1  0.21005  0.43455  0.60716  1
 Li  Li2  1  0.43455  0.60716  0.21005  1
 Li  Li3  1  0.89339  0.72475  0.12679  1
 Li  Li4  1  0.12679  0.89339  0.72475  1
 Li  Li5  1  0.72475  0.12679  0.89339  1
 Li  Li6  1  0.60716  0.21005  0.43455  1
 O  O1  1  0.06071  0.72717  0.00695  1
 O  O2  1  0.08532  0.40497  0.75835  1
 O  O3  1  0.02151  0.31070  0.35385  1
 O  O4  1  0.31070  0.35385  0.02151  1
 O  O5  1  0.35385  0.02151  0.31070  1
 O  O6  1  0.63654  0.60339  0.93931  1
 O  O7  1  0.97547  0.30844  0.98920  1
 O  O8  1  0.37674  0.69444  0.70276  1
 O  O9  1  0.69444  0.70276  0.37674  1
 O  O10  1  0.29939  0.63388  0.35482  1
 O  O11  1  0.30844  0.98920  0.97547  1
 O  O12  1  0.75835  0.08532  0.40497  1
 O  O13  1  0.60339  0.93931  0.63654  1
 O  O14  1  0.40497  0.75835  0.08532  1
 O  O15  1  0.35482  0.29939  0.63388  1
 O  O16  1  0.26231  0.90974  0.58049  1
 O  O17  1  0.58049  0.26231  0.90974  1
 O  O18  1  0.00695  0.06071  0.72717  1
 O  O19  1  0.63388  0.35482  0.29939  1
 O  O20  1  0.72717  0.00695  0.06071  1
 O  O21  1  0.70276  0.37674  0.69444  1
 O  O22  1  0.98920  0.97547  0.30844  1
 O  O23  1  0.90974  0.58049  0.26231  1
 O  O24  1  0.93931  0.63654  0.60339  1
 Si  Si1  1  0.28088  0.87346  0.09761  1
 Si  Si2  1  0.87346  0.09761  0.28088  1
 Si  Si3  1  0.09761  0.28088  0.87346  1
 Si  Si4  1  0.56720  0.38783  0.79639  1
 Si  Si5  1  0.38783  0.79639  0.56720  1
 Si  Si6  1  0.79639  0.56720  0.38783  1
