CIF file written using JARVIS-Tools package.
data_SnPO4F
_symmetry_space_group_name_H-M  'Pnma'
_cell_length_a       6.45031
_cell_length_b       7.19639
_cell_length_c       7.80968
_cell_angle_alpha    90
_cell_angle_beta     90
_cell_angle_gamma    90

_symmetry_Int_Tables_number  62
_chemical_formula_structural  SnPO4F
_chemical_formula_sum  Sn4P4O6F4
_cell_volume  362.5169515823961
_cell_formula_units_Z  4
loop_
  _symmetry_equiv_pos_site_id
 _symmetry_equiv_pos_as_xyz
 1  'x, y, z'
loop_
 _atom_site_type_symbol
 _atom_site_label
 _atom_site_symmetry_multiplicity
 _atom_site_fract_x
 _atom_site_fract_y
 _atom_site_fract_z
 _atom_site_fract_occupancy
 F  F1  1  0.25000  0.85038  0.37366  1
 F  F2  1  0.75000  0.35038  0.12634  1
 F  F3  1  0.25000  0.64962  0.87366  1
 F  F4  1  0.75000  0.14962  0.62634  1
 O  O1  1  0.06117  0.23418  0.37512  1
 O  O2  1  0.75000  0.98528  0.96062  1
 O  O3  1  0.75000  0.51472  0.46062  1
 O  O4  1  0.25000  0.01472  0.03938  1
 O  O5  1  0.25000  0.48528  0.53938  1
 O  O6  1  0.93883  0.73418  0.12488  1
 O  O7  1  0.43883  0.26582  0.87512  1
 O  O8  1  0.56117  0.76582  0.62488  1
 O  O9  1  0.06117  0.26582  0.87512  1
 O  O10  1  0.43883  0.23418  0.37512  1
 O  O11  1  0.56117  0.73418  0.12488  1
 O  O12  1  0.75000  0.98435  0.28899  1
 O  O13  1  0.75000  0.51565  0.78899  1
 O  O14  1  0.25000  0.01565  0.71101  1
 O  O15  1  0.25000  0.48435  0.21101  1
 O  O16  1  0.93883  0.76582  0.62488  1
 P  P1  1  0.25000  0.36536  0.37479  1
 P  P2  1  0.25000  0.13464  0.87479  1
 P  P3  1  0.75000  0.63464  0.62521  1
 P  P4  1  0.75000  0.86536  0.12521  1
 Sn  Sn1  1  0.25000  0.75214  0.62374  1
 Sn  Sn2  1  0.25000  0.74786  0.12374  1
 Sn  Sn3  1  0.75000  0.24786  0.37626  1
 Sn  Sn4  1  0.75000  0.25214  0.87626  1
