CIF file written using JARVIS-Tools package.
data_Nb3Co4B7
_symmetry_space_group_name_H-M  'Cmcm'
_cell_length_a       3.2225
_cell_length_b       8.89177
_cell_length_c       9.34493
_cell_angle_alpha    90
_cell_angle_beta     99.9285
_cell_angle_gamma    90

_symmetry_Int_Tables_number  63
_chemical_formula_structural  Nb3Co4B7
_chemical_formula_sum  Nb6Co8B4
_cell_volume  263.756365009513
_cell_formula_units_Z  2
loop_
  _symmetry_equiv_pos_site_id
 _symmetry_equiv_pos_as_xyz
 1  'x, y, z'
loop_
 _atom_site_type_symbol
 _atom_site_label
 _atom_site_symmetry_multiplicity
 _atom_site_fract_x
 _atom_site_fract_y
 _atom_site_fract_z
 _atom_site_fract_occupancy
 B  B1  1  0.98472  0.90690  0.96944  1
 B  B2  1  0.04433  0.75000  0.08865  1
 B  B3  1  0.89058  0.64812  0.78115  1
 B  B4  1  0.10942  0.35188  0.21885  1
 B  B5  1  0.10942  0.14812  0.21885  1
 B  B6  1  0.89058  0.85188  0.78115  1
 B  B7  1  0.71031  0.64522  0.42062  1
 B  B8  1  0.28969  0.35478  0.57938  1
 B  B9  1  0.28969  0.14522  0.57938  1
 B  B10  1  0.71031  0.85478  0.42062  1
 B  B11  1  0.98472  0.59310  0.96944  1
 B  B12  1  0.01528  0.40690  0.03056  1
 B  B13  1  0.95567  0.25000  0.91135  1
 B  B14  1  0.01528  0.09310  0.03056  1
 Co  Co1  1  0.54194  0.25000  0.08388  1
 Co  Co2  1  0.84389  0.25000  0.68778  1
 Co  Co3  1  0.15611  0.75000  0.31222  1
 Co  Co4  1  0.80106  0.50565  0.60213  1
 Co  Co5  1  0.19894  0.49435  0.39787  1
 Co  Co6  1  0.19894  0.00565  0.39787  1
 Co  Co7  1  0.80106  0.99435  0.60213  1
 Co  Co8  1  0.45806  0.75000  0.91612  1
 Nb  Nb1  1  0.41873  0.05511  0.83746  1
 Nb  Nb2  1  0.69786  0.25000  0.39571  1
 Nb  Nb3  1  0.30214  0.75000  0.60429  1
 Nb  Nb4  1  0.58127  0.55511  0.16254  1
 Nb  Nb5  1  0.41873  0.44489  0.83746  1
 Nb  Nb6  1  0.58127  0.94489  0.16254  1
