CIF file written using JARVIS-Tools package.
data_SiO2
_symmetry_space_group_name_H-M  'Pban'
_cell_length_a       3.87973
_cell_length_b       8.69951
_cell_length_c       9.86503
_cell_angle_alpha    90
_cell_angle_beta     90
_cell_angle_gamma    90

_symmetry_Int_Tables_number  50
_chemical_formula_structural  SiO2
_chemical_formula_sum  Si8O6
_cell_volume  332.9622577823797
_cell_formula_units_Z  8
loop_
  _symmetry_equiv_pos_site_id
 _symmetry_equiv_pos_as_xyz
 1  'x, y, z'
loop_
 _atom_site_type_symbol
 _atom_site_label
 _atom_site_symmetry_multiplicity
 _atom_site_fract_x
 _atom_site_fract_y
 _atom_site_fract_z
 _atom_site_fract_occupancy
 O  O1  1  0.50000  0.75000  0.75000  1
 O  O2  1  0.00000  0.35532  0.50000  1
 O  O3  1  0.50000  0.75000  0.25000  1
 O  O4  1  0.50000  0.30058  0.00000  1
 O  O5  1  0.00000  0.85532  0.00000  1
 O  O6  1  0.00000  0.14468  0.00000  1
 O  O7  1  0.50000  0.00000  0.13390  1
 O  O8  1  0.50000  0.50000  0.36610  1
 O  O9  1  0.50000  0.00000  0.86610  1
 O  O10  1  0.50000  0.69942  0.00000  1
 O  O11  1  0.00000  0.64468  0.50000  1
 O  O12  1  0.50000  0.80058  0.50000  1
 O  O13  1  0.50000  0.50000  0.63390  1
 O  O14  1  0.50000  0.25000  0.25000  1
 O  O15  1  0.50000  0.25000  0.75000  1
 O  O16  1  0.50000  0.19942  0.50000  1
 Si  Si1  1  0.65691  0.32513  0.39192  1
 Si  Si2  1  0.34309  0.67487  0.39192  1
 Si  Si3  1  0.65691  0.82513  0.10808  1
 Si  Si4  1  0.34309  0.17487  0.10808  1
 Si  Si5  1  0.65691  0.17487  0.89192  1
 Si  Si6  1  0.34309  0.82513  0.89192  1
 Si  Si7  1  0.65691  0.67487  0.60808  1
 Si  Si8  1  0.34309  0.32513  0.60808  1
