CIF file written using JARVIS-Tools package.
data_KHfPCO7
_symmetry_space_group_name_H-M  'P2_1'
_cell_length_a       5.3107
_cell_length_b       6.59483
_cell_length_c       9.51528
_cell_angle_alpha    90
_cell_angle_beta     82.1095
_cell_angle_gamma    90

_symmetry_Int_Tables_number  4
_chemical_formula_structural  KHfPCO7
_chemical_formula_sum  K2Hf2P2C2O4
_cell_volume  330.10001145421586
_cell_formula_units_Z  2
loop_
  _symmetry_equiv_pos_site_id
 _symmetry_equiv_pos_as_xyz
 1  'x, y, z'
loop_
 _atom_site_type_symbol
 _atom_site_label
 _atom_site_symmetry_multiplicity
 _atom_site_fract_x
 _atom_site_fract_y
 _atom_site_fract_z
 _atom_site_fract_occupancy
 C  C1  1  0.47586  0.24458  0.07636  1
 C  C2  1  0.52414  0.74458  0.92364  1
 Hf  Hf1  1  0.26605  0.23047  0.33668  1
 Hf  Hf2  1  0.73395  0.73047  0.66332  1
 K  K1  1  0.91802  0.62808  0.14067  1
 K  K2  1  0.08198  0.12808  0.85933  1
 O  O1  1  0.43054  0.73675  0.05001  1
 O  O2  1  0.22215  0.24261  0.11966  1
 O  O3  1  0.77785  0.74261  0.88034  1
 O  O4  1  0.26338  0.92088  0.34395  1
 O  O5  1  0.25612  0.54447  0.34662  1
 O  O6  1  0.60556  0.25321  0.18593  1
 O  O7  1  0.56331  0.73070  0.48195  1
 O  O8  1  0.74388  0.04447  0.65338  1
 O  O9  1  0.09949  0.73728  0.57050  1
 O  O10  1  0.90051  0.23728  0.42950  1
 O  O11  1  0.73662  0.42088  0.65605  1
 O  O12  1  0.39444  0.75321  0.81407  1
 O  O13  1  0.43669  0.23070  0.51805  1
 O  O14  1  0.56946  0.23675  -0.05001  1
 P  P1  1  0.70411  0.23311  0.56471  1
 P  P2  1  0.29589  0.73311  0.43529  1
