CIF file written using JARVIS-Tools package.
data_Pr2CuO4
_symmetry_space_group_name_H-M  'I4/mmm'
_cell_length_a       3.76852
_cell_length_b       3.76852
_cell_length_c       7.07349
_cell_angle_alpha    105.449
_cell_angle_beta     105.449
_cell_angle_gamma    90.0001

_symmetry_Int_Tables_number  139
_chemical_formula_structural  Pr2CuO4
_chemical_formula_sum  Pr2CuO4
_cell_volume  93.05506019809214
_cell_formula_units_Z  1
loop_
  _symmetry_equiv_pos_site_id
 _symmetry_equiv_pos_as_xyz
 1  'x, y, z'
loop_
 _atom_site_type_symbol
 _atom_site_label
 _atom_site_symmetry_multiplicity
 _atom_site_fract_x
 _atom_site_fract_y
 _atom_site_fract_z
 _atom_site_fract_occupancy
 Cu  Cu1  1  0.00000  0.00000  0.00000  1
 O  O1  1  0.81636  0.81636  0.63272  1
 O  O2  1  0.18364  0.18364  0.36728  1
 O  O3  1  0.00000  0.50000  0.00000  1
 O  O4  1  0.50000  -0.00000  0.00000  1
 Pr  Pr1  1  0.63773  0.63773  0.27546  1
 Pr  Pr2  1  0.36227  0.36227  0.72454  1
