CIF file written using JARVIS-Tools package.
data_Th2Ge
_symmetry_space_group_name_H-M  'I4/mcm'
_cell_length_a       6.07421
_cell_length_b       6.07421
_cell_length_c       6.07421
_cell_angle_alpha    104.823
_cell_angle_beta     104.823
_cell_angle_gamma    119.232

_symmetry_Int_Tables_number  140
_chemical_formula_structural  Th2Ge
_chemical_formula_sum  Th4Ge2
_cell_volume  168.7126954628194
_cell_formula_units_Z  2
loop_
  _symmetry_equiv_pos_site_id
 _symmetry_equiv_pos_as_xyz
 1  'x, y, z'
loop_
 _atom_site_type_symbol
 _atom_site_label
 _atom_site_symmetry_multiplicity
 _atom_site_fract_x
 _atom_site_fract_y
 _atom_site_fract_z
 _atom_site_fract_occupancy
 Ge  Ge1  1  0.75000  0.75000  0.00000  1
 Ge  Ge2  1  0.25000  0.25000  -0.00000  1
 Th  Th1  1  0.83662  0.66338  0.50000  1
 Th  Th2  1  0.33662  0.83662  0.17323  1
 Th  Th3  1  0.16338  0.33662  0.50000  1
 Th  Th4  1  0.66338  0.16338  0.82677  1
