CIF file written using JARVIS-Tools package.
data_SrSiO3
_symmetry_space_group_name_H-M  'C2/c'
_cell_length_a       7.15069
_cell_length_b       7.1507
_cell_length_c       10.9904
_cell_angle_alpha    71.5475
_cell_angle_beta     71.5475
_cell_angle_gamma    60.1664

_symmetry_Int_Tables_number  15
_chemical_formula_structural  SrSiO3
_chemical_formula_sum  Sr6Si6O8
_cell_volume  453.7055560677984
_cell_formula_units_Z  6
loop_
  _symmetry_equiv_pos_site_id
 _symmetry_equiv_pos_as_xyz
 1  'x, y, z'
loop_
 _atom_site_type_symbol
 _atom_site_label
 _atom_site_symmetry_multiplicity
 _atom_site_fract_x
 _atom_site_fract_y
 _atom_site_fract_z
 _atom_site_fract_occupancy
 O  O1  1  0.71944  0.53471  0.39600  1
 O  O2  1  0.36702  0.63298  0.75000  1
 O  O3  1  0.11135  0.98350  0.11022  1
 O  O4  1  0.01650  0.88865  0.38978  1
 O  O5  1  0.88865  0.01650  0.88978  1
 O  O6  1  0.98350  0.11135  0.61022  1
 O  O7  1  0.41715  0.79795  0.25172  1
 O  O8  1  0.20205  0.58285  0.24828  1
 O  O9  1  0.58285  0.20205  0.74828  1
 O  O10  1  0.79795  0.41715  0.75172  1
 O  O11  1  0.81838  0.62832  0.11518  1
 O  O12  1  0.37168  0.18162  0.38482  1
 O  O13  1  0.53471  0.71944  0.89600  1
 O  O14  1  0.63298  0.36702  0.25000  1
 O  O15  1  0.46529  0.28056  0.10400  1
 O  O16  1  0.62832  0.81838  0.61518  1
 O  O17  1  0.18162  0.37168  0.88482  1
 O  O18  1  0.28056  0.46529  0.60400  1
 Si  Si1  1  0.16621  0.83379  0.25000  1
 Si  Si2  1  0.83379  0.16621  0.75000  1
 Si  Si3  1  0.66790  0.58188  0.25387  1
 Si  Si4  1  0.41812  0.33210  0.24613  1
 Si  Si5  1  0.33210  0.41812  0.74613  1
 Si  Si6  1  0.58188  0.66790  0.75387  1
 Sr  Sr1  1  0.15486  0.67206  0.99910  1
 Sr  Sr2  1  0.00000  0.50000  0.50000  1
 Sr  Sr3  1  0.50000  0.00000  0.00000  1
 Sr  Sr4  1  0.84514  0.32794  0.00090  1
 Sr  Sr5  1  0.67206  0.15486  0.49910  1
 Sr  Sr6  1  0.32794  0.84514  0.50090  1
