CIF file written using JARVIS-Tools package.
data_Ca3Sn2S7
_symmetry_space_group_name_H-M  'Cccm'
_cell_length_a       6.95798
_cell_length_b       6.93366
_cell_length_c       12.9206
_cell_angle_alpha    105.564
_cell_angle_beta     90
_cell_angle_gamma    90

_symmetry_Int_Tables_number  66
_chemical_formula_structural  Ca3Sn2S7
_chemical_formula_sum  Ca6Sn4S4
_cell_volume  600.4866165219057
_cell_formula_units_Z  2
loop_
  _symmetry_equiv_pos_site_id
 _symmetry_equiv_pos_as_xyz
 1  'x, y, z'
loop_
 _atom_site_type_symbol
 _atom_site_label
 _atom_site_symmetry_multiplicity
 _atom_site_fract_x
 _atom_site_fract_y
 _atom_site_fract_z
 _atom_site_fract_occupancy
 Ca  Ca1  1  0.50000  -0.00000  0.50000  1
 Ca  Ca2  1  0.00000  0.50000  0.50000  1
 Ca  Ca3  1  0.50000  0.83485  0.12914  1
 Ca  Ca4  1  0.50000  0.16515  0.87086  1
 Ca  Ca5  1  0.00000  0.29428  0.12914  1
 Ca  Ca6  1  0.00000  0.70572  0.87086  1
 S  S1  1  0.50000  0.50000  0.50000  1
 S  S2  1  0.75000  0.38041  0.76082  1
 S  S3  1  0.25000  0.82398  0.64796  1
 S  S4  1  0.25000  0.17602  0.35204  1
 S  S5  1  0.75000  0.17602  0.35204  1
 S  S6  1  0.00000  -0.00000  0.50000  1
 S  S7  1  0.50000  0.79062  0.90937  1
 S  S8  1  0.50000  0.20938  0.09063  1
 S  S9  1  0.25000  0.61959  0.23918  1
 S  S10  1  0.00000  0.88125  0.09063  1
 S  S11  1  0.75000  0.82398  0.64796  1
 S  S12  1  0.25000  0.38041  0.76082  1
 S  S13  1  0.00000  0.11875  0.90937  1
 S  S14  1  0.75000  0.61959  0.23918  1
 Sn  Sn1  1  0.00000  0.90115  0.28559  1
 Sn  Sn2  1  0.00000  0.09885  0.71441  1
 Sn  Sn3  1  0.50000  0.38445  0.28559  1
 Sn  Sn4  1  0.50000  0.61555  0.71441  1
