CIF file written using JARVIS-Tools package.
data_CoSb2
_symmetry_space_group_name_H-M  'P2_1/c'
_cell_length_a       6.54871
_cell_length_b       6.43126
_cell_length_c       6.57991
_cell_angle_alpha    90
_cell_angle_beta     116.685
_cell_angle_gamma    90

_symmetry_Int_Tables_number  14
_chemical_formula_structural  CoSb2
_chemical_formula_sum  Co4Sb8
_cell_volume  247.60644770896488
_cell_formula_units_Z  4
loop_
  _symmetry_equiv_pos_site_id
 _symmetry_equiv_pos_as_xyz
 1  'x, y, z'
loop_
 _atom_site_type_symbol
 _atom_site_label
 _atom_site_symmetry_multiplicity
 _atom_site_fract_x
 _atom_site_fract_y
 _atom_site_fract_z
 _atom_site_fract_occupancy
 Co  Co1  1  0.26783  0.00042  0.27863  1
 Co  Co2  1  0.73217  0.50042  0.22137  1
 Co  Co3  1  0.73217  0.99958  0.72137  1
 Co  Co4  1  0.26783  0.49958  0.77863  1
 Sb  Sb1  1  0.34917  0.64415  0.16392  1
 Sb  Sb2  1  0.65083  0.14415  0.33608  1
 Sb  Sb3  1  0.65083  0.35585  0.83608  1
 Sb  Sb4  1  0.34917  0.85585  0.66392  1
 Sb  Sb5  1  0.14654  0.35890  0.36781  1
 Sb  Sb6  1  0.85346  0.85890  0.13219  1
 Sb  Sb7  1  0.85346  0.64110  0.63219  1
 Sb  Sb8  1  0.14654  0.14110  0.86781  1
