CIF file written using JARVIS-Tools package.
data_Na2Mn2O3
_symmetry_space_group_name_H-M  'P4_32_12'
_cell_length_a       6.37817
_cell_length_b       6.37817
_cell_length_c       9.45688
_cell_angle_alpha    90
_cell_angle_beta     90
_cell_angle_gamma    90

_symmetry_Int_Tables_number  96
_chemical_formula_structural  Na2Mn2O3
_chemical_formula_sum  Na8Mn8O2
_cell_volume  384.7163350895432
_cell_formula_units_Z  4
loop_
  _symmetry_equiv_pos_site_id
 _symmetry_equiv_pos_as_xyz
 1  'x, y, z'
loop_
 _atom_site_type_symbol
 _atom_site_label
 _atom_site_symmetry_multiplicity
 _atom_site_fract_x
 _atom_site_fract_y
 _atom_site_fract_z
 _atom_site_fract_occupancy
 Mn  Mn1  1  0.74036  0.03993  0.63369  1
 Mn  Mn2  1  0.75964  0.53993  0.11631  1
 Mn  Mn3  1  0.46007  0.24036  0.38369  1
 Mn  Mn4  1  0.96007  0.25964  0.86631  1
 Mn  Mn5  1  0.53993  0.75964  0.88369  1
 Mn  Mn6  1  0.25964  0.96007  0.13369  1
 Mn  Mn7  1  0.03993  0.74036  0.36631  1
 Mn  Mn8  1  0.24036  0.46007  0.61631  1
 Na  Na1  1  0.52399  0.73529  0.36201  1
 Na  Na2  1  0.26471  0.47601  0.13799  1
 Na  Na3  1  0.97601  0.23529  0.38799  1
 Na  Na4  1  0.02399  0.76471  0.88799  1
 Na  Na5  1  0.76471  0.02399  0.11201  1
 Na  Na6  1  0.23529  0.97601  0.61201  1
 Na  Na7  1  0.47601  0.26471  0.86201  1
 Na  Na8  1  0.73529  0.52399  0.63799  1
 O  O1  1  0.50599  0.75562  0.10405  1
 O  O2  1  0.99401  0.25562  0.64595  1
 O  O3  1  0.24438  0.49401  0.39595  1
 O  O4  1  0.31415  0.68585  0.75000  1
 O  O5  1  0.25562  0.99401  0.35405  1
 O  O6  1  0.68585  0.31415  0.25000  1
 O  O7  1  0.81415  0.81415  0.50000  1
 O  O8  1  0.18585  0.18585  0.00000  1
 O  O9  1  0.75562  0.50599  0.89595  1
 O  O10  1  0.49401  0.24438  0.60405  1
 O  O11  1  0.74438  0.00599  0.85405  1
 O  O12  1  0.00599  0.74438  0.14595  1
