CIF file written using JARVIS-Tools package.
data_ZnSn4O6
_symmetry_space_group_name_H-M  'Cmcm'
_cell_length_a       3.12139
_cell_length_b       6.39073
_cell_length_c       16.7573
_cell_angle_alpha    90
_cell_angle_beta     90
_cell_angle_gamma    104.135

_symmetry_Int_Tables_number  63
_chemical_formula_structural  ZnSn4O6
_chemical_formula_sum  Zn2Sn8O2
_cell_volume  324.15331087385147
_cell_formula_units_Z  2
loop_
  _symmetry_equiv_pos_site_id
 _symmetry_equiv_pos_as_xyz
 1  'x, y, z'
loop_
 _atom_site_type_symbol
 _atom_site_label
 _atom_site_symmetry_multiplicity
 _atom_site_fract_x
 _atom_site_fract_y
 _atom_site_fract_z
 _atom_site_fract_occupancy
 O  O1  1  0.83931  0.67862  0.60439  1
 O  O2  1  0.25227  0.50454  0.75000  1
 O  O3  1  0.50000  0.00000  0.00000  1
 O  O4  1  0.04454  0.08909  0.84113  1
 O  O5  1  0.95546  0.91091  0.15887  1
 O  O6  1  0.50000  0.00000  0.50000  1
 O  O7  1  0.04454  0.08909  0.65887  1
 O  O8  1  0.83931  0.67862  0.89561  1
 O  O9  1  0.16069  0.32138  0.10439  1
 O  O10  1  0.16069  0.32138  0.39561  1
 O  O11  1  0.74773  0.49546  0.25000  1
 O  O12  1  0.95546  0.91091  0.34113  1
 Sn  Sn1  1  0.41100  0.82200  0.83443  1
 Sn  Sn2  1  0.58900  0.17800  0.16557  1
 Sn  Sn3  1  0.12731  0.25462  0.54169  1
 Sn  Sn4  1  0.87269  0.74538  0.45831  1
 Sn  Sn5  1  0.58900  0.17800  0.33443  1
 Sn  Sn6  1  0.12731  0.25462  0.95831  1
 Sn  Sn7  1  0.41100  0.82200  0.66557  1
 Sn  Sn8  1  0.87269  0.74538  0.04169  1
 Zn  Zn1  1  0.33942  0.67884  0.25000  1
 Zn  Zn2  1  0.66058  0.32116  0.75000  1
