CIF file written using JARVIS-Tools package.
data_LiSmGe
_symmetry_space_group_name_H-M  'P-62m'
_cell_length_a       7.17964
_cell_length_b       7.17964
_cell_length_c       4.30906
_cell_angle_alpha    90
_cell_angle_beta     90
_cell_angle_gamma    120

_symmetry_Int_Tables_number  189
_chemical_formula_structural  LiSmGe
_chemical_formula_sum  Li3Sm3Ge3
_cell_volume  192.3613814296617
_cell_formula_units_Z  3
loop_
  _symmetry_equiv_pos_site_id
 _symmetry_equiv_pos_as_xyz
 1  'x, y, z'
loop_
 _atom_site_type_symbol
 _atom_site_label
 _atom_site_symmetry_multiplicity
 _atom_site_fract_x
 _atom_site_fract_y
 _atom_site_fract_z
 _atom_site_fract_occupancy
 Ge  Ge1  1  0.33333  0.66667  0.50000  1
 Ge  Ge2  1  0.66667  0.33333  0.50000  1
 Ge  Ge3  1  0.00000  0.00000  0.00000  1
 Li  Li1  1  0.23323  -0.00000  0.50000  1
 Li  Li2  1  0.76677  0.76677  0.50000  1
 Li  Li3  1  -0.00000  0.23323  0.50000  1
 Sm  Sm1  1  -0.00000  0.57993  0.00000  1
 Sm  Sm2  1  0.57993  -0.00000  0.00000  1
 Sm  Sm3  1  0.42007  0.42007  0.00000  1
