CIF file written using JARVIS-Tools package.
data_K2FeCoC6N6
_symmetry_space_group_name_H-M  'Fm-3m'
_cell_length_a       7.09814
_cell_length_b       7.09814
_cell_length_c       7.09815
_cell_angle_alpha    60
_cell_angle_beta     60
_cell_angle_gamma    60

_symmetry_Int_Tables_number  225
_chemical_formula_structural  K2FeCoC6N6
_chemical_formula_sum  K2FeCoC6N6
_cell_volume  252.88309304783246
_cell_formula_units_Z  1
loop_
  _symmetry_equiv_pos_site_id
 _symmetry_equiv_pos_as_xyz
 1  'x, y, z'
loop_
 _atom_site_type_symbol
 _atom_site_label
 _atom_site_symmetry_multiplicity
 _atom_site_fract_x
 _atom_site_fract_y
 _atom_site_fract_z
 _atom_site_fract_occupancy
 C  C1  1  0.18721  0.81279  0.18721  1
 C  C2  1  0.81279  0.18721  0.81279  1
 C  C3  1  0.18721  0.81279  0.81279  1
 C  C4  1  0.81279  0.81279  0.18721  1
 C  C5  1  0.81279  0.18721  0.18721  1
 C  C6  1  0.18721  0.18721  0.81279  1
 Co  Co1  1  0.50000  0.50000  0.50000  1
 Fe  Fe1  1  0.00000  0.00000  0.00000  1
 K  K1  1  0.25000  0.25000  0.25000  1
 K  K2  1  0.75000  0.75000  0.75000  1
 N  N1  1  0.69564  0.69564  0.30436  1
 N  N2  1  0.30436  0.69564  0.69564  1
 N  N3  1  0.69564  0.30436  0.69564  1
 N  N4  1  0.30436  0.69564  0.30436  1
 N  N5  1  0.69564  0.30436  0.30436  1
 N  N6  1  0.30436  0.30436  0.69564  1
