CIF file written using JARVIS-Tools package.
data_LiFeP
_symmetry_space_group_name_H-M  'P4/nmm'
_cell_length_a       3.69232
_cell_length_b       3.69232
_cell_length_c       5.82886
_cell_angle_alpha    90
_cell_angle_beta     90
_cell_angle_gamma    90

_symmetry_Int_Tables_number  129
_chemical_formula_structural  LiFeP
_chemical_formula_sum  Li2Fe2P2
_cell_volume  79.46617313879746
_cell_formula_units_Z  2
loop_
  _symmetry_equiv_pos_site_id
 _symmetry_equiv_pos_as_xyz
 1  'x, y, z'
loop_
 _atom_site_type_symbol
 _atom_site_label
 _atom_site_symmetry_multiplicity
 _atom_site_fract_x
 _atom_site_fract_y
 _atom_site_fract_z
 _atom_site_fract_occupancy
 Fe  Fe1  1  0.50000  0.50000  0.00000  1
 Fe  Fe2  1  0.00000  0.00000  0.00000  1
 Li  Li1  1  0.50000  0.00000  0.65354  1
 Li  Li2  1  0.00000  0.50000  0.34646  1
 P  P1  1  0.00000  0.50000  0.78925  1
 P  P2  1  0.50000  0.00000  0.21075  1
