CIF file written using JARVIS-Tools package.
data_Y3AlNi8
_symmetry_space_group_name_H-M  'P6_3/mmc'
_cell_length_a       5.06397
_cell_length_b       5.06397
_cell_length_c       16.6847
_cell_angle_alpha    90
_cell_angle_beta     90
_cell_angle_gamma    120

_symmetry_Int_Tables_number  194
_chemical_formula_structural  Y3AlNi8
_chemical_formula_sum  Y6Al2Ni6
_cell_volume  370.5356363419517
_cell_formula_units_Z  2
loop_
  _symmetry_equiv_pos_site_id
 _symmetry_equiv_pos_as_xyz
 1  'x, y, z'
loop_
 _atom_site_type_symbol
 _atom_site_label
 _atom_site_symmetry_multiplicity
 _atom_site_fract_x
 _atom_site_fract_y
 _atom_site_fract_z
 _atom_site_fract_occupancy
 Al  Al1  1  0.33333  0.66667  0.25000  1
 Al  Al2  1  0.66667  0.33333  0.75000  1
 Ni  Ni1  1  0.00000  0.00000  0.50000  1
 Ni  Ni2  1  0.83778  0.67555  0.38075  1
 Ni  Ni3  1  0.16222  0.32445  0.88075  1
 Ni  Ni4  1  0.16222  0.83778  0.88075  1
 Ni  Ni5  1  0.67555  0.83778  0.88075  1
 Ni  Ni6  1  0.83778  0.16222  0.11925  1
 Ni  Ni7  1  0.32445  0.16222  0.38075  1
 Ni  Ni8  1  0.32445  0.16222  0.11925  1
 Ni  Ni9  1  0.16222  0.32445  0.61925  1
 Ni  Ni10  1  0.67555  0.83778  0.61925  1
 Ni  Ni11  1  0.83778  0.16222  0.38075  1
 Ni  Ni12  1  0.83778  0.67555  0.11925  1
 Ni  Ni13  1  0.00000  0.00000  0.00000  1
 Ni  Ni14  1  0.00000  0.00000  0.25000  1
 Ni  Ni15  1  0.00000  0.00000  0.75000  1
 Ni  Ni16  1  0.16222  0.83778  0.61925  1
 Y  Y1  1  0.33333  0.66667  0.45192  1
 Y  Y2  1  0.66667  0.33333  0.95192  1
 Y  Y3  1  0.66667  0.33333  0.54808  1
 Y  Y4  1  0.33333  0.66667  0.04808  1
 Y  Y5  1  0.66667  0.33333  0.25000  1
 Y  Y6  1  0.33333  0.66667  0.75000  1
