CIF file written using JARVIS-Tools package.
data_BaErAgS3
_symmetry_space_group_name_H-M  'C2/m'
_cell_length_a       4.03193
_cell_length_b       8.53669
_cell_length_c       8.9706
_cell_angle_alpha    102.243
_cell_angle_beta     102.987
_cell_angle_gamma    89.9994

_symmetry_Int_Tables_number  12
_chemical_formula_structural  BaErAgS3
_chemical_formula_sum  Ba2Er2Ag2S6
_cell_volume  293.6541145446824
_cell_formula_units_Z  2
loop_
  _symmetry_equiv_pos_site_id
 _symmetry_equiv_pos_as_xyz
 1  'x, y, z'
loop_
 _atom_site_type_symbol
 _atom_site_label
 _atom_site_symmetry_multiplicity
 _atom_site_fract_x
 _atom_site_fract_y
 _atom_site_fract_z
 _atom_site_fract_occupancy
 Ag  Ag1  1  0.52034  0.21123  0.04080  1
 Ag  Ag2  1  0.47966  0.78877  0.95920  1
 Ba  Ba1  1  0.86426  0.42821  0.72849  1
 Ba  Ba2  1  0.13574  0.57179  0.27151  1
 Er  Er1  1  0.16361  0.08106  0.32723  1
 Er  Er2  1  0.83639  0.91894  0.67277  1
 S  S1  1  0.32481  0.12870  0.64961  1
 S  S2  1  0.67519  0.87130  0.35039  1
 S  S3  1  0.32273  0.69811  0.64544  1
 S  S4  1  0.67727  0.30189  0.35456  1
 S  S5  1  0.50000  0.50000  -0.00000  1
 S  S6  1  0.00000  0.00000  0.00000  1
