CIF file written using JARVIS-Tools package.
data_ZnNiO3
_symmetry_space_group_name_H-M  'Pnma'
_cell_length_a       4.96304
_cell_length_b       5.11777
_cell_length_c       7.28919
_cell_angle_alpha    90
_cell_angle_beta     90
_cell_angle_gamma    90

_symmetry_Int_Tables_number  62
_chemical_formula_structural  ZnNiO3
_chemical_formula_sum  Zn4Ni4O2
_cell_volume  185.14291462263
_cell_formula_units_Z  4
loop_
  _symmetry_equiv_pos_site_id
 _symmetry_equiv_pos_as_xyz
 1  'x, y, z'
loop_
 _atom_site_type_symbol
 _atom_site_label
 _atom_site_symmetry_multiplicity
 _atom_site_fract_x
 _atom_site_fract_y
 _atom_site_fract_z
 _atom_site_fract_occupancy
 Ni  Ni1  1  0.50000  0.00000  0.00000  1
 Ni  Ni2  1  0.00000  0.50000  0.00000  1
 Ni  Ni3  1  0.00000  0.50000  0.50000  1
 Ni  Ni4  1  0.50000  0.00000  0.50000  1
 O  O1  1  0.69306  0.30149  0.07055  1
 O  O2  1  0.87169  0.56262  0.75000  1
 O  O3  1  0.30694  0.69851  0.57055  1
 O  O4  1  0.62831  0.06262  0.75000  1
 O  O5  1  0.12831  0.43738  0.25000  1
 O  O6  1  0.37169  0.93738  0.25000  1
 O  O7  1  0.19306  0.19851  0.57055  1
 O  O8  1  0.80694  0.80149  0.42945  1
 O  O9  1  0.30694  0.69851  0.92945  1
 O  O10  1  0.69306  0.30149  0.42945  1
 O  O11  1  0.19306  0.19851  0.92945  1
 O  O12  1  0.80694  0.80149  0.07055  1
 Zn  Zn1  1  0.01712  0.94433  0.75000  1
 Zn  Zn2  1  0.51712  0.55567  0.25000  1
 Zn  Zn3  1  0.48288  0.44433  0.75000  1
 Zn  Zn4  1  0.98288  0.05567  0.25000  1
