CIF file written using JARVIS-Tools package.
data_Li2MnC2O6
_symmetry_space_group_name_H-M  'P2_1/c'
_cell_length_a       5.14311
_cell_length_b       7.85091
_cell_length_c       6.89334
_cell_angle_alpha    90
_cell_angle_beta     114.986
_cell_angle_gamma    90

_symmetry_Int_Tables_number  14
_chemical_formula_structural  Li2MnC2O6
_chemical_formula_sum  Li4Mn2C4O2
_cell_volume  252.28950066732514
_cell_formula_units_Z  2
loop_
  _symmetry_equiv_pos_site_id
 _symmetry_equiv_pos_as_xyz
 1  'x, y, z'
loop_
 _atom_site_type_symbol
 _atom_site_label
 _atom_site_symmetry_multiplicity
 _atom_site_fract_x
 _atom_site_fract_y
 _atom_site_fract_z
 _atom_site_fract_occupancy
 C  C1  1  0.82199  0.26403  0.14661  1
 C  C2  1  0.17801  0.76403  0.35339  1
 C  C3  1  0.82199  0.23597  0.64661  1
 C  C4  1  0.17801  0.73597  0.85339  1
 Li  Li1  1  0.38758  0.41588  0.26289  1
 Li  Li2  1  0.61242  0.91588  0.23711  1
 Li  Li3  1  0.38758  0.08412  0.76289  1
 Li  Li4  1  0.61242  0.58412  0.73711  1
 Mn  Mn1  1  0.00000  0.00000  0.00000  1
 Mn  Mn2  1  -0.00000  0.50000  0.50000  1
 O  O1  1  0.27629  0.60341  0.79644  1
 O  O2  1  0.72371  0.39659  0.20356  1
 O  O3  1  0.06564  0.26624  0.13310  1
 O  O4  1  0.93436  0.76624  0.36690  1
 O  O5  1  0.67565  0.12236  0.09771  1
 O  O6  1  0.93436  0.73376  0.86690  1
 O  O7  1  0.32435  0.62236  0.40229  1
 O  O8  1  0.72371  0.10341  0.70356  1
 O  O9  1  0.06564  0.23376  0.63310  1
 O  O10  1  0.27629  0.89659  0.29644  1
 O  O11  1  0.67565  0.37764  0.59771  1
 O  O12  1  0.32435  0.87764  0.90229  1
