CIF file written using JARVIS-Tools package.
data_Li5Ni3N3
_symmetry_space_group_name_H-M  'P-62m'
_cell_length_a       6.44626
_cell_length_b       6.44626
_cell_length_c       3.48909
_cell_angle_alpha    90
_cell_angle_beta     90
_cell_angle_gamma    120

_symmetry_Int_Tables_number  189
_chemical_formula_structural  Li5Ni3N3
_chemical_formula_sum  Li5Ni3N3
_cell_volume  125.56235095031485
_cell_formula_units_Z  1
loop_
  _symmetry_equiv_pos_site_id
 _symmetry_equiv_pos_as_xyz
 1  'x, y, z'
loop_
 _atom_site_type_symbol
 _atom_site_label
 _atom_site_symmetry_multiplicity
 _atom_site_fract_x
 _atom_site_fract_y
 _atom_site_fract_z
 _atom_site_fract_occupancy
 Li  Li1  1  0.33333  0.66667  0.50000  1
 Li  Li2  1  0.66667  0.33333  0.50000  1
 Li  Li3  1  0.73733  0.73733  0.50000  1
 Li  Li4  1  0.26267  0.00000  0.50000  1
 Li  Li5  1  0.00000  0.26267  0.50000  1
 N  N1  1  0.36463  0.36463  0.50000  1
 N  N2  1  0.63537  0.00000  0.50000  1
 N  N3  1  0.00000  0.63537  0.50000  1
 Ni  Ni1  1  0.36591  0.36591  0.00000  1
 Ni  Ni2  1  -0.00000  0.63409  0.00000  1
 Ni  Ni3  1  0.63409  -0.00000  0.00000  1
