CIF file written using JARVIS-Tools package.
data_Ti3SiC2
_symmetry_space_group_name_H-M  'P6_3/mmc'
_cell_length_a       3.08201
_cell_length_b       3.08201
_cell_length_c       17.7441
_cell_angle_alpha    90
_cell_angle_beta     90
_cell_angle_gamma    120

_symmetry_Int_Tables_number  194
_chemical_formula_structural  Ti3SiC2
_chemical_formula_sum  Ti6Si2C4
_cell_volume  145.96578251887115
_cell_formula_units_Z  2
loop_
  _symmetry_equiv_pos_site_id
 _symmetry_equiv_pos_as_xyz
 1  'x, y, z'
loop_
 _atom_site_type_symbol
 _atom_site_label
 _atom_site_symmetry_multiplicity
 _atom_site_fract_x
 _atom_site_fract_y
 _atom_site_fract_z
 _atom_site_fract_occupancy
 C  C1  1  0.33333  0.66667  0.57238  1
 C  C2  1  0.66667  0.33333  0.07238  1
 C  C3  1  0.33333  0.66667  0.92762  1
 C  C4  1  0.66667  0.33333  0.42762  1
 Si  Si1  1  0.00000  0.00000  0.25000  1
 Si  Si2  1  0.00000  0.00000  0.75000  1
 Ti  Ti1  1  0.66667  0.33333  0.63485  1
 Ti  Ti2  1  0.33333  0.66667  0.13485  1
 Ti  Ti3  1  0.33333  0.66667  0.36515  1
 Ti  Ti4  1  0.66667  0.33333  0.86515  1
 Ti  Ti5  1  0.00000  0.00000  0.50000  1
 Ti  Ti6  1  0.00000  0.00000  0.00000  1
