CIF file written using JARVIS-Tools package.
data_KLiSi2O5
_symmetry_space_group_name_H-M  'P2_1'
_cell_length_a       5.99684
_cell_length_b       4.85122
_cell_length_c       8.19149
_cell_angle_alpha    90
_cell_angle_beta     93.5039
_cell_angle_gamma    90

_symmetry_Int_Tables_number  4
_chemical_formula_structural  KLiSi2O5
_chemical_formula_sum  K2Li2Si4O0
_cell_volume  237.86114499496014
_cell_formula_units_Z  2
loop_
  _symmetry_equiv_pos_site_id
 _symmetry_equiv_pos_as_xyz
 1  'x, y, z'
loop_
 _atom_site_type_symbol
 _atom_site_label
 _atom_site_symmetry_multiplicity
 _atom_site_fract_x
 _atom_site_fract_y
 _atom_site_fract_z
 _atom_site_fract_occupancy
 K  K1  1  0.03191  0.30997  0.68618  1
 K  K2  1  0.96809  0.80997  0.31382  1
 Li  Li1  1  0.12850  0.29877  0.09423  1
 Li  Li2  1  0.87150  0.79877  0.90577  1
 O  O1  1  0.19024  0.30344  0.32804  1
 O  O2  1  0.80976  0.80344  0.67196  1
 O  O3  1  0.59637  0.60913  0.00203  1
 O  O4  1  0.14323  0.65334  0.99847  1
 O  O5  1  0.63579  0.28792  0.26401  1
 O  O6  1  0.36421  0.78792  0.73599  1
 O  O7  1  0.48046  0.69721  0.43572  1
 O  O8  1  0.51954  0.19721  0.56428  1
 O  O9  1  0.40363  0.10913  -0.00203  1
 O  O10  1  0.85677  0.15334  0.00153  1
 Si  Si1  1  0.63342  0.28240  0.06238  1
 Si  Si2  1  0.44137  0.36452  0.39378  1
 Si  Si3  1  0.55863  0.86452  0.60622  1
 Si  Si4  1  0.36658  0.78240  0.93762  1
