CIF file written using JARVIS-Tools package.
data_ZrAl2
_symmetry_space_group_name_H-M  'P6_3/mmc'
_cell_length_a       5.30683
_cell_length_b       5.30683
_cell_length_c       8.79314
_cell_angle_alpha    90
_cell_angle_beta     90
_cell_angle_gamma    120

_symmetry_Int_Tables_number  194
_chemical_formula_structural  ZrAl2
_chemical_formula_sum  Zr4Al8
_cell_volume  214.45953341701414
_cell_formula_units_Z  4
loop_
  _symmetry_equiv_pos_site_id
 _symmetry_equiv_pos_as_xyz
 1  'x, y, z'
loop_
 _atom_site_type_symbol
 _atom_site_label
 _atom_site_symmetry_multiplicity
 _atom_site_fract_x
 _atom_site_fract_y
 _atom_site_fract_z
 _atom_site_fract_occupancy
 Al  Al1  1  0.17092  0.82908  0.25000  1
 Al  Al2  1  0.82908  0.65816  0.75000  1
 Al  Al3  1  0.34184  0.17092  0.75000  1
 Al  Al4  1  0.65816  0.82908  0.25000  1
 Al  Al5  1  0.00000  0.00000  0.00000  1
 Al  Al6  1  0.00000  0.00000  0.50000  1
 Al  Al7  1  0.82908  0.17092  0.75000  1
 Al  Al8  1  0.17092  0.34184  0.25000  1
 Zr  Zr1  1  0.33333  0.66667  0.56472  1
 Zr  Zr2  1  0.66667  0.33333  0.06472  1
 Zr  Zr3  1  0.66667  0.33333  0.43528  1
 Zr  Zr4  1  0.33333  0.66667  0.93528  1
