CIF file written using JARVIS-Tools package.
data_Zn3Sn2O7
_symmetry_space_group_name_H-M  'Cmc2_1'
_cell_length_a       5.36293
_cell_length_b       5.39748
_cell_length_c       9.89765
_cell_angle_alpha    105.823
_cell_angle_beta     90
_cell_angle_gamma    90

_symmetry_Int_Tables_number  36
_chemical_formula_structural  Zn3Sn2O7
_chemical_formula_sum  Zn6Sn4O4
_cell_volume  275.6440760523135
_cell_formula_units_Z  2
loop_
  _symmetry_equiv_pos_site_id
 _symmetry_equiv_pos_as_xyz
 1  'x, y, z'
loop_
 _atom_site_type_symbol
 _atom_site_label
 _atom_site_symmetry_multiplicity
 _atom_site_fract_x
 _atom_site_fract_y
 _atom_site_fract_z
 _atom_site_fract_occupancy
 O  O1  1  0.85355  0.37943  -0.00000  1
 O  O2  1  0.66281  0.92570  0.58883  1
 O  O3  1  0.92700  0.99202  0.14877  1
 O  O4  1  0.16281  0.66313  0.58883  1
 O  O5  1  0.66281  0.33687  0.41117  1
 O  O6  1  0.08280  0.28058  0.72776  1
 O  O7  1  0.16281  0.07430  0.41117  1
 O  O8  1  0.58280  0.44718  0.72776  1
 O  O9  1  0.08280  0.55282  0.27224  1
 O  O10  1  0.92700  0.84326  0.85123  1
 O  O11  1  0.42700  0.15674  0.14877  1
 O  O12  1  0.42700  0.00798  0.85123  1
 O  O13  1  0.35355  0.62057  0.00000  1
 O  O14  1  0.58280  0.71942  0.27224  1
 Sn  Sn1  1  0.75578  0.14892  0.79239  1
 Sn  Sn2  1  0.25578  0.85108  0.20761  1
 Sn  Sn3  1  0.25578  0.64347  0.79239  1
 Sn  Sn4  1  0.75578  0.35653  0.20761  1
 Zn  Zn1  1  0.29079  0.01761  0.59033  1
 Zn  Zn2  1  0.79079  0.98239  0.40967  1
 Zn  Zn3  1  0.29079  0.42727  0.40967  1
 Zn  Zn4  1  0.79079  0.57273  0.59033  1
 Zn  Zn5  1  0.22810  0.25493  0.00000  1
 Zn  Zn6  1  0.72810  0.74507  -0.00000  1
