CIF file written using JARVIS-Tools package.
data_CeH3O3
_symmetry_space_group_name_H-M  'P6_3/m'
_cell_length_a       6.49093
_cell_length_b       3.75014
_cell_length_c       6.49061
_cell_angle_alpha    90
_cell_angle_beta     120.002
_cell_angle_gamma    90

_symmetry_Int_Tables_number  176
_chemical_formula_structural  CeH3O3
_chemical_formula_sum  Ce2H6O6
_cell_volume  136.82345195339568
_cell_formula_units_Z  2
loop_
  _symmetry_equiv_pos_site_id
 _symmetry_equiv_pos_as_xyz
 1  'x, y, z'
loop_
 _atom_site_type_symbol
 _atom_site_label
 _atom_site_symmetry_multiplicity
 _atom_site_fract_x
 _atom_site_fract_y
 _atom_site_fract_z
 _atom_site_fract_occupancy
 Ce  Ce1  1  0.33335  0.75000  0.66667  1
 Ce  Ce2  1  0.66665  0.25000  0.33333  1
 H  H1  1  0.85408  0.75000  0.73852  1
 H  H2  1  0.26144  0.75000  0.11549  1
 H  H3  1  0.88441  0.75000  0.14592  1
 H  H4  1  0.14592  0.25000  0.26148  1
 H  H5  1  0.73856  0.25000  0.88451  1
 H  H6  1  0.11559  0.25000  0.85408  1
 O  O1  1  0.68910  0.75000  0.60694  1
 O  O2  1  0.39304  0.75000  0.08214  1
 O  O3  1  0.91784  0.75000  0.31091  1
 O  O4  1  0.31090  0.25000  0.39306  1
 O  O5  1  0.60696  0.25000  0.91786  1
 O  O6  1  0.08216  0.25000  0.68909  1
