CIF file written using JARVIS-Tools package.
data_Li3VB2O6
_symmetry_space_group_name_H-M  'P-1'
_cell_length_a       5.09506
_cell_length_b       5.84009
_cell_length_c       7.75161
_cell_angle_alpha    80.1875
_cell_angle_beta     89.171
_cell_angle_gamma    89.0313

_symmetry_Int_Tables_number  2
_chemical_formula_structural  Li3VB2O6
_chemical_formula_sum  Li6V2B4O2
_cell_volume  227.2312332831993
_cell_formula_units_Z  2
loop_
  _symmetry_equiv_pos_site_id
 _symmetry_equiv_pos_as_xyz
 1  'x, y, z'
loop_
 _atom_site_type_symbol
 _atom_site_label
 _atom_site_symmetry_multiplicity
 _atom_site_fract_x
 _atom_site_fract_y
 _atom_site_fract_z
 _atom_site_fract_occupancy
 B  B1  1  0.33794  0.34408  0.92394  1
 B  B2  1  0.15802  0.17397  0.58458  1
 B  B3  1  0.84198  0.82603  0.41542  1
 B  B4  1  0.66206  0.65592  0.07606  1
 Li  Li1  1  0.83024  0.18742  0.10422  1
 Li  Li2  1  0.16976  0.81258  0.89578  1
 Li  Li3  1  0.66015  0.26032  0.41096  1
 Li  Li4  1  0.33985  0.73968  0.58904  1
 Li  Li5  1  0.34379  0.98837  0.24191  1
 Li  Li6  1  0.65621  0.01163  0.75809  1
 O  O1  1  0.21804  0.50387  0.79192  1
 O  O2  1  0.71453  0.72452  0.57160  1
 O  O3  1  0.71233  0.98820  0.30106  1
 O  O4  1  0.60489  0.29714  0.90446  1
 O  O5  1  0.39511  0.70286  0.09554  1
 O  O6  1  0.28767  0.01180  0.69894  1
 O  O7  1  0.89452  0.23626  0.60849  1
 O  O8  1  0.19985  0.24683  0.07085  1
 O  O9  1  0.10548  0.76374  0.39151  1
 O  O10  1  0.78196  0.49613  0.20808  1
 O  O11  1  0.80015  0.75317  0.92915  1
 O  O12  1  0.28547  0.27548  0.42840  1
 V  V1  1  0.84512  0.49258  0.75158  1
 V  V2  1  0.15488  0.50742  0.24842  1
