CIF file written using JARVIS-Tools package.
data_DyTiClO3
_symmetry_space_group_name_H-M  'C2/m'
_cell_length_a       3.90433
_cell_length_b       5.28165
_cell_length_c       9.82264
_cell_angle_alpha    74.4546
_cell_angle_beta     78.5366
_cell_angle_gamma    68.3082

_symmetry_Int_Tables_number  12
_chemical_formula_structural  DyTiClO3
_chemical_formula_sum  Dy2Ti2Cl2O6
_cell_volume  180.19908251302488
_cell_formula_units_Z  2
loop_
  _symmetry_equiv_pos_site_id
 _symmetry_equiv_pos_as_xyz
 1  'x, y, z'
loop_
 _atom_site_type_symbol
 _atom_site_label
 _atom_site_symmetry_multiplicity
 _atom_site_fract_x
 _atom_site_fract_y
 _atom_site_fract_z
 _atom_site_fract_occupancy
 Cl  Cl1  1  0.11260  0.67849  0.09631  1
 Cl  Cl2  1  0.88740  0.32151  0.90369  1
 Dy  Dy1  1  0.77889  0.23988  0.20235  1
 Dy  Dy2  1  0.22111  0.76012  0.79765  1
 O  O1  1  0.16770  0.09937  0.56523  1
 O  O2  1  0.57865  0.46796  0.37475  1
 O  O3  1  0.64845  0.95221  0.75089  1
 O  O4  1  0.35155  0.04779  0.24911  1
 O  O5  1  0.83230  0.90063  0.43477  1
 O  O6  1  0.42135  0.53204  0.62525  1
 Ti  Ti1  1  0.61856  0.19240  0.57048  1
 Ti  Ti2  1  0.38144  0.80760  0.42952  1
