CIF file written using JARVIS-Tools package.
data_YFe2O4
_symmetry_space_group_name_H-M  'R-3m'
_cell_length_a       8.5041
_cell_length_b       8.5041
_cell_length_c       8.5041
_cell_angle_alpha    23.841
_cell_angle_beta     23.841
_cell_angle_gamma    23.8411

_symmetry_Int_Tables_number  166
_chemical_formula_structural  YFe2O4
_chemical_formula_sum  YFe2O4
_cell_volume  88.2726359140768
_cell_formula_units_Z  1
loop_
  _symmetry_equiv_pos_site_id
 _symmetry_equiv_pos_as_xyz
 1  'x, y, z'
loop_
 _atom_site_type_symbol
 _atom_site_label
 _atom_site_symmetry_multiplicity
 _atom_site_fract_x
 _atom_site_fract_y
 _atom_site_fract_z
 _atom_site_fract_occupancy
 Fe  Fe1  1  0.78748  0.78748  0.78748  1
 Fe  Fe2  1  0.21252  0.21252  0.21252  1
 O  O1  1  0.87319  0.87319  0.87319  1
 O  O2  1  0.12681  0.12681  0.12681  1
 O  O3  1  0.70858  0.70858  0.70858  1
 O  O4  1  0.29142  0.29142  0.29142  1
 Y  Y1  1  0.00000  0.00000  0.00000  1
