CIF file written using JARVIS-Tools package.
data_DyGeRh
_symmetry_space_group_name_H-M  'Pnma'
_cell_length_a       4.32177
_cell_length_b       6.92041
_cell_length_c       7.54024
_cell_angle_alpha    90
_cell_angle_beta     90
_cell_angle_gamma    90

_symmetry_Int_Tables_number  62
_chemical_formula_structural  DyGeRh
_chemical_formula_sum  Dy4Ge4Rh4
_cell_volume  225.51674548826531
_cell_formula_units_Z  4
loop_
  _symmetry_equiv_pos_site_id
 _symmetry_equiv_pos_as_xyz
 1  'x, y, z'
loop_
 _atom_site_type_symbol
 _atom_site_label
 _atom_site_symmetry_multiplicity
 _atom_site_fract_x
 _atom_site_fract_y
 _atom_site_fract_z
 _atom_site_fract_occupancy
 Dy  Dy1  1  0.25000  0.00054  0.80413  1
 Dy  Dy2  1  0.75000  0.99946  0.19587  1
 Dy  Dy3  1  0.25000  0.50054  0.69587  1
 Dy  Dy4  1  0.75000  0.49946  0.30413  1
 Ge  Ge1  1  0.25000  0.28896  0.10305  1
 Ge  Ge2  1  0.75000  0.71104  0.89695  1
 Ge  Ge3  1  0.25000  0.78896  0.39695  1
 Ge  Ge4  1  0.75000  0.21104  0.60305  1
 Rh  Rh1  1  0.75000  0.84061  0.57051  1
 Rh  Rh2  1  0.25000  0.15939  0.42949  1
 Rh  Rh3  1  0.75000  0.34061  0.92949  1
 Rh  Rh4  1  0.25000  0.65939  0.07051  1
