CIF file written using JARVIS-Tools package.
data_Cu2HgI4
_symmetry_space_group_name_H-M  'Cccm'
_cell_length_a       8.34635
_cell_length_b       5.79892
_cell_length_c       15.7574
_cell_angle_alpha    90
_cell_angle_beta     90
_cell_angle_gamma    136.025

_symmetry_Int_Tables_number  66
_chemical_formula_structural  Cu2HgI4
_chemical_formula_sum  Cu4Hg2I8
_cell_volume  529.5423885501019
_cell_formula_units_Z  2
loop_
  _symmetry_equiv_pos_site_id
 _symmetry_equiv_pos_as_xyz
 1  'x, y, z'
loop_
 _atom_site_type_symbol
 _atom_site_label
 _atom_site_symmetry_multiplicity
 _atom_site_fract_x
 _atom_site_fract_y
 _atom_site_fract_z
 _atom_site_fract_occupancy
 Cu  Cu1  1  0.50000  0.00000  0.50000  1
 Cu  Cu2  1  0.50000  0.50000  0.50000  1
 Cu  Cu3  1  0.50000  0.00000  0.00000  1
 Cu  Cu4  1  0.00000  0.50000  0.00000  1
 Hg  Hg1  1  0.50000  0.50000  0.00000  1
 Hg  Hg2  1  0.00000  0.50000  0.50000  1
 I  I1  1  0.23013  0.50843  0.12406  1
 I  I2  1  0.27830  0.50843  0.62406  1
 I  I3  1  0.27830  0.50843  0.37594  1
 I  I4  1  0.23013  0.50843  0.87594  1
 I  I5  1  0.76987  0.49157  0.12406  1
 I  I6  1  0.72170  0.49157  0.37594  1
 I  I7  1  0.72170  0.49157  0.62406  1
 I  I8  1  0.76987  0.49157  0.87594  1
