CIF file written using JARVIS-Tools package.
data_Na2CaP2O7
_symmetry_space_group_name_H-M  'P-1'
_cell_length_a       5.42277
_cell_length_b       7.07679
_cell_length_c       8.90545
_cell_angle_alpha    68.7417
_cell_angle_beta     89.1719
_cell_angle_gamma    88.9508

_symmetry_Int_Tables_number  2
_chemical_formula_structural  Na2CaP2O7
_chemical_formula_sum  Na4Ca2P4O4
_cell_volume  318.4356519483027
_cell_formula_units_Z  2
loop_
  _symmetry_equiv_pos_site_id
 _symmetry_equiv_pos_as_xyz
 1  'x, y, z'
loop_
 _atom_site_type_symbol
 _atom_site_label
 _atom_site_symmetry_multiplicity
 _atom_site_fract_x
 _atom_site_fract_y
 _atom_site_fract_z
 _atom_site_fract_occupancy
 Ca  Ca1  1  0.23659  0.24645  0.71778  1
 Ca  Ca2  1  0.76341  0.75355  0.28222  1
 Na  Na1  1  0.23764  0.86855  0.55290  1
 Na  Na2  1  0.72617  0.21382  0.01302  1
 Na  Na3  1  0.76236  0.13145  0.44710  1
 Na  Na4  1  0.27383  0.78618  0.98698  1
 O  O1  1  0.55257  -0.00007  0.71346  1
 O  O2  1  0.44743  0.00007  0.28654  1
 O  O3  1  0.15610  0.63441  0.25168  1
 O  O4  1  0.72666  0.64308  0.84436  1
 O  O5  1  0.01792  0.94023  0.76673  1
 O  O6  1  0.71494  0.86885  0.00179  1
 O  O7  1  0.83483  0.73314  0.54565  1
 O  O8  1  0.56579  0.44717  0.33736  1
 O  O9  1  0.27334  0.35692  0.15564  1
 O  O10  1  0.98208  0.05977  0.23327  1
 O  O11  1  0.43421  0.55283  0.66264  1
 O  O12  1  0.28506  0.13115  -0.00179  1
 O  O13  1  0.84390  0.36559  0.74832  1
 O  O14  1  0.16517  0.26686  0.45435  1
 P  P1  1  0.70993  0.57027  0.68813  1
 P  P2  1  0.29007  0.42973  0.31187  1
 P  P3  1  0.75581  0.88019  0.82854  1
 P  P4  1  0.24419  0.11981  0.17146  1
