CIF file written using JARVIS-Tools package.
data_CaMgSn
_symmetry_space_group_name_H-M  'Pnma'
_cell_length_a       4.68171
_cell_length_b       7.8263
_cell_length_c       8.76349
_cell_angle_alpha    90
_cell_angle_beta     90
_cell_angle_gamma    90

_symmetry_Int_Tables_number  62
_chemical_formula_structural  CaMgSn
_chemical_formula_sum  Ca4Mg4Sn4
_cell_volume  321.0985647668771
_cell_formula_units_Z  4
loop_
  _symmetry_equiv_pos_site_id
 _symmetry_equiv_pos_as_xyz
 1  'x, y, z'
loop_
 _atom_site_type_symbol
 _atom_site_label
 _atom_site_symmetry_multiplicity
 _atom_site_fract_x
 _atom_site_fract_y
 _atom_site_fract_z
 _atom_site_fract_occupancy
 Ca  Ca1  1  0.75000  0.48010  0.68354  1
 Ca  Ca2  1  0.75000  0.98010  0.81646  1
 Ca  Ca3  1  0.25000  0.51990  0.31646  1
 Ca  Ca4  1  0.25000  0.01990  0.18354  1
 Mg  Mg1  1  0.75000  0.85556  0.43678  1
 Mg  Mg2  1  0.25000  0.14444  0.56322  1
 Mg  Mg3  1  0.25000  0.64444  0.93678  1
 Mg  Mg4  1  0.75000  0.35556  0.06322  1
 Sn  Sn1  1  0.75000  0.73543  0.11606  1
 Sn  Sn2  1  0.25000  0.26457  0.88394  1
 Sn  Sn3  1  0.75000  0.23543  0.38394  1
 Sn  Sn4  1  0.25000  0.76457  0.61606  1
