CIF file written using JARVIS-Tools package.
data_Rb5Au3O2
_symmetry_space_group_name_H-M  'Pbam'
_cell_length_a       5.67773
_cell_length_b       7.36333
_cell_length_c       14.3282
_cell_angle_alpha    90
_cell_angle_beta     90
_cell_angle_gamma    90

_symmetry_Int_Tables_number  55
_chemical_formula_structural  Rb5Au3O2
_chemical_formula_sum  Rb0Au6O4
_cell_volume  599.0180144763575
_cell_formula_units_Z  2
loop_
  _symmetry_equiv_pos_site_id
 _symmetry_equiv_pos_as_xyz
 1  'x, y, z'
loop_
 _atom_site_type_symbol
 _atom_site_label
 _atom_site_symmetry_multiplicity
 _atom_site_fract_x
 _atom_site_fract_y
 _atom_site_fract_z
 _atom_site_fract_occupancy
 Au  Au1  1  0.00000  0.00000  0.00000  1
 Au  Au2  1  0.00000  0.50000  0.50000  1
 Au  Au3  1  0.50000  0.35045  0.14393  1
 Au  Au4  1  0.50000  0.64955  0.85607  1
 Au  Au5  1  0.50000  0.85045  0.35607  1
 Au  Au6  1  0.50000  0.14955  0.64393  1
 O  O1  1  0.00000  0.32343  0.39105  1
 O  O2  1  0.00000  0.17657  0.89105  1
 O  O3  1  0.00000  0.67657  0.60895  1
 O  O4  1  0.00000  0.82343  0.10895  1
 Rb  Rb1  1  0.50000  0.17248  0.89644  1
 Rb  Rb2  1  0.00000  0.00000  0.50000  1
 Rb  Rb3  1  0.00000  0.50000  0.00000  1
 Rb  Rb4  1  0.50000  0.67248  0.60356  1
 Rb  Rb5  1  0.00000  0.88693  0.76468  1
 Rb  Rb6  1  0.00000  0.61307  0.26468  1
 Rb  Rb7  1  0.00000  0.38693  0.73532  1
 Rb  Rb8  1  0.50000  0.32752  0.39644  1
 Rb  Rb9  1  0.50000  0.82752  0.10356  1
 Rb  Rb10  1  0.00000  0.11307  0.23532  1
