CIF file written using JARVIS-Tools package.
data_C
_symmetry_space_group_name_H-M  'R-3m'
_cell_length_a       14.5691
_cell_length_b       14.5691
_cell_length_c       14.5691
_cell_angle_alpha    9.929
_cell_angle_beta     9.929
_cell_angle_gamma    9.929

_symmetry_Int_Tables_number  166
_chemical_formula_structural  C
_chemical_formula_sum  C4
_cell_volume  79.8237961923117
_cell_formula_units_Z  14
loop_
  _symmetry_equiv_pos_site_id
 _symmetry_equiv_pos_as_xyz
 1  'x, y, z'
loop_
 _atom_site_type_symbol
 _atom_site_label
 _atom_site_symmetry_multiplicity
 _atom_site_fract_x
 _atom_site_fract_y
 _atom_site_fract_z
 _atom_site_fract_occupancy
 C  C1  1  0.41047  0.41047  0.41047  1
 C  C2  1  0.30368  0.30368  0.30368  1
 C  C3  1  0.58953  0.58953  0.58953  1
 C  C4  1  0.17260  0.17260  0.17260  1
 C  C5  1  0.82740  0.82740  0.82740  1
 C  C6  1  0.55342  0.55342  0.55342  1
 C  C7  1  0.20814  0.20814  0.20814  1
 C  C8  1  0.73186  0.73186  0.73186  1
 C  C9  1  0.26814  0.26814  0.26814  1
 C  C10  1  0.44658  0.44658  0.44658  1
 C  C11  1  0.01778  0.01778  0.01778  1
 C  C12  1  0.79186  0.79186  0.79186  1
 C  C13  1  0.69632  0.69632  0.69632  1
 C  C14  1  0.98222  0.98222  0.98222  1
