CIF file written using JARVIS-Tools package.
data_KNa2AuO2
_symmetry_space_group_name_H-M  'Pnnm'
_cell_length_a       3.9468
_cell_length_b       5.49378
_cell_length_c       9.99402
_cell_angle_alpha    90
_cell_angle_beta     90
_cell_angle_gamma    90

_symmetry_Int_Tables_number  58
_chemical_formula_structural  KNa2AuO2
_chemical_formula_sum  K2Na4Au2O4
_cell_volume  216.69853612491215
_cell_formula_units_Z  2
loop_
  _symmetry_equiv_pos_site_id
 _symmetry_equiv_pos_as_xyz
 1  'x, y, z'
loop_
 _atom_site_type_symbol
 _atom_site_label
 _atom_site_symmetry_multiplicity
 _atom_site_fract_x
 _atom_site_fract_y
 _atom_site_fract_z
 _atom_site_fract_occupancy
 Au  Au1  1  0.00000  0.00000  0.00000  1
 Au  Au2  1  0.50000  0.50000  0.50000  1
 K  K1  1  0.00000  0.00000  0.50000  1
 K  K2  1  0.50000  0.50000  0.00000  1
 Na  Na1  1  0.50000  0.90217  0.23324  1
 Na  Na2  1  0.50000  0.09783  0.76676  1
 Na  Na3  1  0.00000  0.40217  0.26676  1
 Na  Na4  1  0.00000  0.59783  0.73324  1
 O  O1  1  0.50000  0.75146  0.64843  1
 O  O2  1  0.00000  0.25146  0.85157  1
 O  O3  1  0.00000  0.74854  0.14843  1
 O  O4  1  0.50000  0.24854  0.35157  1
