CIF file written using JARVIS-Tools package.
data_SrMnV2Ag2O8
_symmetry_space_group_name_H-M  'C2/c'
_cell_length_a       5.61922
_cell_length_b       5.70979
_cell_length_c       13.662
_cell_angle_alpha    90.8112
_cell_angle_beta     90
_cell_angle_gamma    119.477

_symmetry_Int_Tables_number  15
_chemical_formula_structural  SrMnV2Ag2O8
_chemical_formula_sum  Sr2Mn2V4Ag4O6
_cell_volume  381.54914273089094
_cell_formula_units_Z  2
loop_
  _symmetry_equiv_pos_site_id
 _symmetry_equiv_pos_as_xyz
 1  'x, y, z'
loop_
 _atom_site_type_symbol
 _atom_site_label
 _atom_site_symmetry_multiplicity
 _atom_site_fract_x
 _atom_site_fract_y
 _atom_site_fract_z
 _atom_site_fract_occupancy
 Ag  Ag1  1  0.29058  0.68614  0.40098  1
 Ag  Ag2  1  0.70942  0.31386  0.59902  1
 Ag  Ag3  1  0.60444  0.31386  0.09902  1
 Ag  Ag4  1  0.39556  0.68614  0.90098  1
 Mn  Mn1  1  0.00000  0.00000  0.50000  1
 Mn  Mn2  1  0.00000  0.00000  0.00000  1
 O  O1  1  0.27816  0.17735  0.38523  1
 O  O2  1  0.78631  0.21080  0.44659  1
 O  O3  1  0.89919  0.17735  0.88523  1
 O  O4  1  0.21369  0.78920  0.55341  1
 O  O5  1  0.42449  0.21080  0.94659  1
 O  O6  1  0.40009  0.68082  0.24674  1
 O  O7  1  0.71927  0.31918  0.25326  1
 O  O8  1  0.57551  0.78920  0.05341  1
 O  O9  1  0.28073  0.68082  0.74674  1
 O  O10  1  0.77181  0.69261  0.40144  1
 O  O11  1  0.72184  0.82265  0.61477  1
 O  O12  1  0.22819  0.30739  0.59856  1
 O  O13  1  0.10081  0.82265  0.11477  1
 O  O14  1  0.59991  0.31918  0.75326  1
 O  O15  1  0.07920  0.30739  0.09856  1
 O  O16  1  0.92080  0.69261  0.90144  1
 Sr  Sr1  1  0.08125  0.00000  0.75000  1
 Sr  Sr2  1  0.91875  -0.00000  0.25000  1
 V  V1  1  0.28392  0.64941  0.12791  1
 V  V2  1  0.71608  0.35059  0.87209  1
 V  V3  1  0.36550  0.64941  0.62791  1
 V  V4  1  0.63450  0.35059  0.37209  1
