CIF file written using JARVIS-Tools package.
data_Mg2P2O7
_symmetry_space_group_name_H-M  'C2/m'
_cell_length_a       4.53554
_cell_length_b       5.27985
_cell_length_c       5.27985
_cell_angle_alpha    104.149
_cell_angle_beta     98.3356
_cell_angle_gamma    98.3356

_symmetry_Int_Tables_number  12
_chemical_formula_structural  Mg2P2O7
_chemical_formula_sum  Mg2P2O7
_cell_volume  119.14120852709611
_cell_formula_units_Z  1
loop_
  _symmetry_equiv_pos_site_id
 _symmetry_equiv_pos_as_xyz
 1  'x, y, z'
loop_
 _atom_site_type_symbol
 _atom_site_label
 _atom_site_symmetry_multiplicity
 _atom_site_fract_x
 _atom_site_fract_y
 _atom_site_fract_z
 _atom_site_fract_occupancy
 Mg  Mg1  1  0.50000  0.68806  0.31194  1
 Mg  Mg2  1  0.50000  0.31194  0.68806  1
 O  O1  1  0.27952  0.92613  0.62081  1
 O  O2  1  0.72048  0.37919  0.07387  1
 O  O3  1  0.72048  0.07387  0.37919  1
 O  O4  1  0.27952  0.62081  0.92613  1
 O  O5  1  0.00000  0.00000  0.00000  1
 O  O6  1  0.78663  0.61857  0.61857  1
 O  O7  1  0.21337  0.38143  0.38143  1
 P  P1  1  0.09332  0.77987  0.77987  1
 P  P2  1  0.90668  0.22013  0.22013  1
