CIF file written using JARVIS-Tools package.
data_NiS
_symmetry_space_group_name_H-M  'R3m'
_cell_length_a       5.6342
_cell_length_b       5.63421
_cell_length_c       5.6342
_cell_angle_alpha    116.596
_cell_angle_beta     116.596
_cell_angle_gamma    116.596

_symmetry_Int_Tables_number  160
_chemical_formula_structural  NiS
_chemical_formula_sum  Ni3S3
_cell_volume  83.74963115917647
_cell_formula_units_Z  3
loop_
  _symmetry_equiv_pos_site_id
 _symmetry_equiv_pos_as_xyz
 1  'x, y, z'
loop_
 _atom_site_type_symbol
 _atom_site_label
 _atom_site_symmetry_multiplicity
 _atom_site_fract_x
 _atom_site_fract_y
 _atom_site_fract_z
 _atom_site_fract_occupancy
 Ni  Ni1  1  0.66003  0.39595  0.39595  1
 Ni  Ni2  1  0.39595  0.39595  0.66003  1
 Ni  Ni3  1  0.39595  0.66003  0.39595  1
 S  S1  1  0.78329  0.12009  0.12009  1
 S  S2  1  0.12009  0.12009  0.78329  1
 S  S3  1  0.12009  0.78329  0.12009  1
