CIF file written using JARVIS-Tools package.
data_Ca2SnS4
_symmetry_space_group_name_H-M  'Pbca'
_cell_length_a       6.8379
_cell_length_b       7.38811
_cell_length_c       13.3242
_cell_angle_alpha    90
_cell_angle_beta     90
_cell_angle_gamma    90

_symmetry_Int_Tables_number  61
_chemical_formula_structural  Ca2SnS4
_chemical_formula_sum  Ca8Sn4S6
_cell_volume  673.1262938858009
_cell_formula_units_Z  4
loop_
  _symmetry_equiv_pos_site_id
 _symmetry_equiv_pos_as_xyz
 1  'x, y, z'
loop_
 _atom_site_type_symbol
 _atom_site_label
 _atom_site_symmetry_multiplicity
 _atom_site_fract_x
 _atom_site_fract_y
 _atom_site_fract_z
 _atom_site_fract_occupancy
 Ca  Ca1  1  0.49293  0.89765  0.85566  1
 Ca  Ca2  1  0.99293  0.60235  0.14434  1
 Ca  Ca3  1  0.50707  0.39765  0.64434  1
 Ca  Ca4  1  0.00707  0.10235  0.35566  1
 Ca  Ca5  1  0.50706  0.10235  0.14434  1
 Ca  Ca6  1  0.00706  0.39765  0.85566  1
 Ca  Ca7  1  0.49294  0.60235  0.35566  1
 Ca  Ca8  1  0.99294  0.89765  0.64434  1
 S  S1  1  0.81426  0.80542  0.44490  1
 S  S2  1  0.18576  0.19458  0.55510  1
 S  S3  1  0.68576  0.30542  0.44490  1
 S  S4  1  0.31426  0.69458  0.55510  1
 S  S5  1  0.68574  0.19458  0.94490  1
 S  S6  1  0.62497  0.45760  0.17487  1
 S  S7  1  0.81424  0.69458  0.94490  1
 S  S8  1  0.18574  0.30542  0.05510  1
 S  S9  1  0.62497  0.04240  0.67487  1
 S  S10  1  0.37503  0.95760  0.32513  1
 S  S11  1  0.37503  0.54240  0.82513  1
 S  S12  1  0.87503  0.95760  0.17487  1
 S  S13  1  0.31424  0.80542  0.05510  1
 S  S14  1  0.87503  0.54240  0.67487  1
 S  S15  1  0.12497  0.45760  0.32513  1
 S  S16  1  0.12497  0.04240  0.82513  1
 Sn  Sn1  1  0.50001  0.00000  0.50000  1
 Sn  Sn2  1  0.00001  0.50000  0.50000  1
 Sn  Sn3  1  0.49999  0.50000  0.00000  1
 Sn  Sn4  1  -0.00001  -0.00000  -0.00000  1
