CIF file written using JARVIS-Tools package.
data_Mn3OF5
_symmetry_space_group_name_H-M  'C2/m'
_cell_length_a       7.44111
_cell_length_b       5.77928
_cell_length_c       5.77928
_cell_angle_alpha    73.7499
_cell_angle_beta     73.9083
_cell_angle_gamma    73.9083

_symmetry_Int_Tables_number  12
_chemical_formula_structural  Mn3OF5
_chemical_formula_sum  Mn6O2F0
_cell_volume  223.82416049198545
_cell_formula_units_Z  2
loop_
  _symmetry_equiv_pos_site_id
 _symmetry_equiv_pos_as_xyz
 1  'x, y, z'
loop_
 _atom_site_type_symbol
 _atom_site_label
 _atom_site_symmetry_multiplicity
 _atom_site_fract_x
 _atom_site_fract_y
 _atom_site_fract_z
 _atom_site_fract_occupancy
 F  F1  1  0.66360  0.63399  0.03604  1
 F  F2  1  0.00000  0.30709  0.69291  1
 F  F3  1  0.33640  0.36601  0.96396  1
 F  F4  1  0.29360  0.90661  0.90661  1
 F  F5  1  0.66360  0.03604  0.63399  1
 F  F6  1  0.70640  0.09339  0.09339  1
 F  F7  1  0.37562  0.42083  0.42083  1
 F  F8  1  0.33640  0.96396  0.36601  1
 F  F9  1  -0.00000  0.69291  0.30709  1
 F  F10  1  0.62438  0.57917  0.57917  1
 Mn  Mn1  1  0.00000  0.00000  0.00000  1
 Mn  Mn2  1  0.50000  0.00000  -0.00000  1
 Mn  Mn3  1  0.15227  0.32128  0.32128  1
 Mn  Mn4  1  0.31220  0.66514  0.66514  1
 Mn  Mn5  1  0.68780  0.33486  0.33486  1
 Mn  Mn6  1  0.84773  0.67872  0.67872  1
 O  O1  1  0.03339  0.78359  0.78359  1
 O  O2  1  0.96661  0.21641  0.21641  1
