CIF file written using JARVIS-Tools package.
data_K3TaS4
_symmetry_space_group_name_H-M  'Pnma'
_cell_length_a       9.2716
_cell_length_b       9.38635
_cell_length_c       10.6469
_cell_angle_alpha    90
_cell_angle_beta     90
_cell_angle_gamma    90

_symmetry_Int_Tables_number  62
_chemical_formula_structural  K3TaS4
_chemical_formula_sum  K2Ta4S6
_cell_volume  926.563032607025
_cell_formula_units_Z  4
loop_
  _symmetry_equiv_pos_site_id
 _symmetry_equiv_pos_as_xyz
 1  'x, y, z'
loop_
 _atom_site_type_symbol
 _atom_site_label
 _atom_site_symmetry_multiplicity
 _atom_site_fract_x
 _atom_site_fract_y
 _atom_site_fract_z
 _atom_site_fract_occupancy
 K  K1  1  0.55678  0.28879  0.04432  1
 K  K2  1  0.63434  0.08172  0.75000  1
 K  K3  1  0.05678  0.21121  0.45568  1
 K  K4  1  0.44322  0.71121  0.54432  1
 K  K5  1  0.55678  0.28879  0.45568  1
 K  K6  1  0.05678  0.21121  0.04432  1
 K  K7  1  0.94322  0.78879  0.95568  1
 K  K8  1  0.44322  0.71121  0.95568  1
 K  K9  1  0.36566  0.91828  0.25000  1
 K  K10  1  0.86566  0.58172  0.25000  1
 K  K11  1  0.13434  0.41828  0.75000  1
 K  K12  1  0.94322  0.78879  0.54432  1
 S  S1  1  0.16644  0.55226  0.42756  1
 S  S2  1  0.01254  0.91374  0.25000  1
 S  S3  1  0.16644  0.55226  0.07244  1
 S  S4  1  0.66644  0.94774  0.42756  1
 S  S5  1  0.33356  0.05226  0.92756  1
 S  S6  1  0.83356  0.44774  0.57244  1
 S  S7  1  0.83356  0.44774  0.92756  1
 S  S8  1  0.66644  0.94774  0.07244  1
 S  S9  1  0.69095  0.75553  0.75000  1
 S  S10  1  0.98746  0.08626  0.75000  1
 S  S11  1  0.80905  0.25553  0.25000  1
 S  S12  1  0.30905  0.24447  0.25000  1
 S  S13  1  0.48746  0.41374  0.75000  1
 S  S14  1  0.51254  0.58626  0.25000  1
 S  S15  1  0.33356  0.05226  0.57244  1
 S  S16  1  0.19095  0.74447  0.75000  1
 Ta  Ta1  1  0.71309  0.51342  0.75000  1
 Ta  Ta2  1  0.28691  0.48658  0.25000  1
 Ta  Ta3  1  0.78691  0.01342  0.25000  1
 Ta  Ta4  1  0.21309  0.98658  0.75000  1
