CIF file written using JARVIS-Tools package.
data_Ta4FeP
_symmetry_space_group_name_H-M  'P4/mcc'
_cell_length_a       6.10785
_cell_length_b       6.10785
_cell_length_c       5.09487
_cell_angle_alpha    90
_cell_angle_beta     90
_cell_angle_gamma    90

_symmetry_Int_Tables_number  124
_chemical_formula_structural  Ta4FeP
_chemical_formula_sum  Ta8Fe2P2
_cell_volume  190.0684980531487
_cell_formula_units_Z  2
loop_
  _symmetry_equiv_pos_site_id
 _symmetry_equiv_pos_as_xyz
 1  'x, y, z'
loop_
 _atom_site_type_symbol
 _atom_site_label
 _atom_site_symmetry_multiplicity
 _atom_site_fract_x
 _atom_site_fract_y
 _atom_site_fract_z
 _atom_site_fract_occupancy
 Fe  Fe1  1  0.00000  0.00000  0.75000  1
 Fe  Fe2  1  0.00000  0.00000  0.25000  1
 P  P1  1  0.50000  0.50000  0.75000  1
 P  P2  1  0.50000  0.50000  0.25000  1
 Ta  Ta1  1  0.33022  0.15566  0.50000  1
 Ta  Ta2  1  0.66978  0.84434  0.50000  1
 Ta  Ta3  1  0.15566  0.66978  0.50000  1
 Ta  Ta4  1  0.84434  0.33022  0.50000  1
 Ta  Ta5  1  0.33022  0.84434  0.00000  1
 Ta  Ta6  1  0.84434  0.66978  0.00000  1
 Ta  Ta7  1  0.15566  0.33022  0.00000  1
 Ta  Ta8  1  0.66978  0.15566  0.00000  1
