CIF file written using JARVIS-Tools package.
data_Mg2B4Ru5
_symmetry_space_group_name_H-M  'Pbam'
_cell_length_a       2.96389
_cell_length_b       8.41764
_cell_length_c       10.0617
_cell_angle_alpha    90
_cell_angle_beta     90
_cell_angle_gamma    90

_symmetry_Int_Tables_number  55
_chemical_formula_structural  Mg2B4Ru5
_chemical_formula_sum  Mg4B8Ru0
_cell_volume  251.02896087008696
_cell_formula_units_Z  2
loop_
  _symmetry_equiv_pos_site_id
 _symmetry_equiv_pos_as_xyz
 1  'x, y, z'
loop_
 _atom_site_type_symbol
 _atom_site_label
 _atom_site_symmetry_multiplicity
 _atom_site_fract_x
 _atom_site_fract_y
 _atom_site_fract_z
 _atom_site_fract_occupancy
 B  B1  1  0.50000  0.85207  0.60274  1
 B  B2  1  0.50000  0.64793  0.10274  1
 B  B3  1  0.50000  0.14793  0.39726  1
 B  B4  1  0.50000  0.35207  0.89726  1
 B  B5  1  0.50000  0.53950  0.41123  1
 B  B6  1  0.50000  0.03950  0.08877  1
 B  B7  1  0.50000  0.96050  0.91123  1
 B  B8  1  0.50000  0.46050  0.58877  1
 Mg  Mg1  1  0.50000  0.64813  0.81552  1
 Mg  Mg2  1  0.50000  0.14813  0.68448  1
 Mg  Mg3  1  0.50000  0.35187  0.18448  1
 Mg  Mg4  1  0.50000  0.85187  0.31552  1
 Ru  Ru1  1  0.00000  0.34378  0.45208  1
 Ru  Ru2  1  0.00000  0.15622  0.95208  1
 Ru  Ru3  1  0.00000  0.39516  0.73770  1
 Ru  Ru4  1  0.00000  0.60484  0.26230  1
 Ru  Ru5  1  0.00000  0.89516  0.76230  1
 Ru  Ru6  1  0.00000  0.10484  0.23770  1
 Ru  Ru7  1  0.00000  0.00000  0.50000  1
 Ru  Ru8  1  0.00000  0.50000  0.00000  1
 Ru  Ru9  1  0.00000  0.65622  0.54792  1
 Ru  Ru10  1  0.00000  0.84378  0.04792  1
