CIF file written using JARVIS-Tools package.
data_RbSb
_symmetry_space_group_name_H-M  'P2_12_12_1'
_cell_length_a       7.25201
_cell_length_b       7.30229
_cell_length_c       12.8377
_cell_angle_alpha    90
_cell_angle_beta     90
_cell_angle_gamma    90

_symmetry_Int_Tables_number  19
_chemical_formula_structural  RbSb
_chemical_formula_sum  Rb8Sb8
_cell_volume  679.839235879902
_cell_formula_units_Z  8
loop_
  _symmetry_equiv_pos_site_id
 _symmetry_equiv_pos_as_xyz
 1  'x, y, z'
loop_
 _atom_site_type_symbol
 _atom_site_label
 _atom_site_symmetry_multiplicity
 _atom_site_fract_x
 _atom_site_fract_y
 _atom_site_fract_z
 _atom_site_fract_occupancy
 Rb  Rb1  1  0.32542  0.34101  0.71370  1
 Rb  Rb2  1  0.82542  0.15899  0.28630  1
 Rb  Rb3  1  0.67458  0.84101  0.78630  1
 Rb  Rb4  1  0.17458  0.65899  0.21370  1
 Rb  Rb5  1  0.59119  0.59956  0.41837  1
 Rb  Rb6  1  0.09119  0.90044  0.58163  1
 Rb  Rb7  1  0.40881  0.09956  0.08163  1
 Rb  Rb8  1  0.90881  0.40044  0.91837  1
 Sb  Sb1  1  0.08986  0.44894  0.46581  1
 Sb  Sb2  1  0.58986  0.05106  0.53419  1
 Sb  Sb3  1  0.91014  0.94894  0.03419  1
 Sb  Sb4  1  0.41014  0.55106  0.96581  1
 Sb  Sb5  1  0.82386  0.33303  0.62331  1
 Sb  Sb6  1  0.32386  0.16697  0.37669  1
 Sb  Sb7  1  0.17614  0.83303  0.87669  1
 Sb  Sb8  1  0.67614  0.66697  0.12331  1
