CIF file written using JARVIS-Tools package.
data_Li2CrAsCO7
_symmetry_space_group_name_H-M  'P2_1/m'
_cell_length_a       5.03417
_cell_length_b       6.50805
_cell_length_c       8.47551
_cell_angle_alpha    90
_cell_angle_beta     93.4838
_cell_angle_gamma    90

_symmetry_Int_Tables_number  11
_chemical_formula_structural  Li2CrAsCO7
_chemical_formula_sum  Li4Cr2As2C2O4
_cell_volume  277.166875683758
_cell_formula_units_Z  2
loop_
  _symmetry_equiv_pos_site_id
 _symmetry_equiv_pos_as_xyz
 1  'x, y, z'
loop_
 _atom_site_type_symbol
 _atom_site_label
 _atom_site_symmetry_multiplicity
 _atom_site_fract_x
 _atom_site_fract_y
 _atom_site_fract_z
 _atom_site_fract_occupancy
 As  As1  1  0.28215  0.75000  0.41713  1
 As  As2  1  0.71785  0.25000  0.58287  1
 C  C1  1  0.27910  0.25000  0.04835  1
 C  C2  1  0.72090  0.75000  0.95165  1
 Cr  Cr1  1  0.20705  0.25000  0.33096  1
 Cr  Cr2  1  0.79295  0.75000  0.66904  1
 Li  Li1  1  0.78150  0.49182  0.21593  1
 Li  Li2  1  0.78150  0.00818  0.21593  1
 Li  Li3  1  0.21850  0.50818  0.78407  1
 Li  Li4  1  0.21850  0.99182  0.78407  1
 O  O1  1  0.68621  0.75000  0.09766  1
 O  O2  1  0.95680  0.75000  0.89318  1
 O  O3  1  0.47540  0.25000  0.15896  1
 O  O4  1  0.17087  0.95390  0.30550  1
 O  O5  1  0.17087  0.54610  0.30550  1
 O  O6  1  0.04320  0.25000  0.10682  1
 O  O7  1  0.82913  0.04610  0.69450  1
 O  O8  1  0.37518  0.25000  0.54976  1
 O  O9  1  0.16166  0.75000  0.60371  1
 O  O10  1  0.82913  0.45390  0.69450  1
 O  O11  1  0.83834  0.25000  0.39629  1
 O  O12  1  0.52460  0.75000  0.84104  1
 O  O13  1  0.62482  0.75000  0.45024  1
 O  O14  1  0.31379  0.25000  0.90234  1
