CIF file written using JARVIS-Tools package.
data_H5NF2
_symmetry_space_group_name_H-M  'Pmna'
_cell_length_a       3.58919
_cell_length_b       8.17741
_cell_length_c       8.3864
_cell_angle_alpha    90
_cell_angle_beta     90
_cell_angle_gamma    90

_symmetry_Int_Tables_number  53
_chemical_formula_structural  H5NF2
_chemical_formula_sum  H20N4F8
_cell_volume  246.14345864986947
_cell_formula_units_Z  4
loop_
  _symmetry_equiv_pos_site_id
 _symmetry_equiv_pos_as_xyz
 1  'x, y, z'
loop_
 _atom_site_type_symbol
 _atom_site_label
 _atom_site_symmetry_multiplicity
 _atom_site_fract_x
 _atom_site_fract_y
 _atom_site_fract_z
 _atom_site_fract_occupancy
 F  F1  1  0.90930  0.36485  0.00000  1
 F  F2  1  0.09070  0.63515  0.00000  1
 F  F3  1  0.00000  0.00000  0.86274  1
 F  F4  1  0.00000  0.50000  0.63726  1
 F  F5  1  0.00000  0.00000  0.13726  1
 F  F6  1  0.00000  0.50000  0.36274  1
 F  F7  1  0.90930  0.13515  0.50000  1
 F  F8  1  0.09070  0.86485  0.50000  1
 H  H1  1  0.70688  0.65607  0.29359  1
 H  H2  1  0.37191  0.70510  0.15836  1
 H  H3  1  0.62809  0.29490  0.15836  1
 H  H4  1  0.62809  0.20510  0.34164  1
 H  H5  1  0.62809  0.29490  0.84164  1
 H  H6  1  0.37191  0.79490  0.34164  1
 H  H7  1  0.37191  0.79490  0.65836  1
 H  H8  1  0.29312  0.15607  0.79359  1
 H  H9  1  0.29312  0.34393  0.70641  1
 H  H10  1  0.70688  0.65607  0.70641  1
 H  H11  1  0.70688  0.84393  0.79359  1
 H  H12  1  0.00000  0.00000  0.50000  1
 H  H13  1  0.00000  0.50000  0.50000  1
 H  H14  1  0.37191  0.70510  0.84164  1
 H  H15  1  0.62809  0.20510  0.65836  1
 H  H16  1  0.00000  0.00000  0.00000  1
 H  H17  1  0.29312  0.15607  0.20641  1
 H  H18  1  0.29312  0.34393  0.29359  1
 H  H19  1  0.00000  0.50000  0.00000  1
 H  H20  1  0.70688  0.84393  0.20641  1
 N  N1  1  0.53919  0.75000  0.75000  1
 N  N2  1  0.53919  0.75000  0.25000  1
 N  N3  1  0.46081  0.25000  0.25000  1
 N  N4  1  0.46081  0.25000  0.75000  1
