CIF file written using JARVIS-Tools package.
data_Y4C7
_symmetry_space_group_name_H-M  'P2_1/c'
_cell_length_a       3.70871
_cell_length_b       13.7376
_cell_length_c       6.46118
_cell_angle_alpha    90
_cell_angle_beta     104.674
_cell_angle_gamma    90

_symmetry_Int_Tables_number  14
_chemical_formula_structural  Y4C7
_chemical_formula_sum  Y8C4
_cell_volume  318.45145101178986
_cell_formula_units_Z  2
loop_
  _symmetry_equiv_pos_site_id
 _symmetry_equiv_pos_as_xyz
 1  'x, y, z'
loop_
 _atom_site_type_symbol
 _atom_site_label
 _atom_site_symmetry_multiplicity
 _atom_site_fract_x
 _atom_site_fract_y
 _atom_site_fract_z
 _atom_site_fract_occupancy
 C  C1  1  0.73336  0.89535  0.45069  1
 C  C2  1  0.00000  0.50000  0.50000  1
 C  C3  1  0.00000  0.00000  0.00000  1
 C  C4  1  0.37721  0.30344  0.04582  1
 C  C5  1  0.53051  0.28394  0.57629  1
 C  C6  1  0.53051  0.21606  0.07629  1
 C  C7  1  0.46949  0.78394  0.92371  1
 C  C8  1  0.37721  0.19656  0.54582  1
 C  C9  1  0.62279  0.69656  0.95418  1
 C  C10  1  0.26664  0.39535  0.04931  1
 C  C11  1  0.62279  0.80344  0.45418  1
 C  C12  1  0.73336  0.60465  0.95069  1
 C  C13  1  0.26664  0.10465  0.54931  1
 C  C14  1  0.46949  0.71606  0.42371  1
 Y  Y1  1  0.05654  0.83722  0.16143  1
 Y  Y2  1  0.94346  0.33722  0.33857  1
 Y  Y3  1  0.94346  0.16278  0.83857  1
 Y  Y4  1  0.05654  0.66278  0.66143  1
 Y  Y5  1  0.36624  0.55544  0.23876  1
 Y  Y6  1  0.63376  0.05544  0.26124  1
 Y  Y7  1  0.63376  0.44456  0.76124  1
 Y  Y8  1  0.36624  0.94456  0.73876  1
