CIF file written using JARVIS-Tools package.
data_LiVSiO4
_symmetry_space_group_name_H-M  'Pnma'
_cell_length_a       6.00737
_cell_length_b       4.77798
_cell_length_c       10.1269
_cell_angle_alpha    90
_cell_angle_beta     90.0119
_cell_angle_gamma    90

_symmetry_Int_Tables_number  62
_chemical_formula_structural  LiVSiO4
_chemical_formula_sum  Li4V4Si4O6
_cell_volume  290.6737678991498
_cell_formula_units_Z  4
loop_
  _symmetry_equiv_pos_site_id
 _symmetry_equiv_pos_as_xyz
 1  'x, y, z'
loop_
 _atom_site_type_symbol
 _atom_site_label
 _atom_site_symmetry_multiplicity
 _atom_site_fract_x
 _atom_site_fract_y
 _atom_site_fract_z
 _atom_site_fract_occupancy
 Li  Li1  1  0.00643  0.72709  0.78450  1
 Li  Li2  1  0.00643  0.27291  0.28450  1
 Li  Li3  1  0.50664  0.22710  0.71549  1
 Li  Li4  1  0.50664  0.77290  0.21549  1
 O  O1  1  0.50656  0.51412  0.05781  1
 O  O2  1  0.78036  0.97505  0.15249  1
 O  O3  1  0.73269  0.52494  0.84750  1
 O  O4  1  0.00655  0.51600  0.58433  1
 O  O5  1  0.00655  0.48400  0.08433  1
 O  O6  1  0.73269  0.47506  0.34750  1
 O  O7  1  0.28021  0.52497  0.84753  1
 O  O8  1  0.50656  0.48588  0.55781  1
 O  O9  1  0.00650  0.01414  0.44219  1
 O  O10  1  0.78036  0.02495  0.65249  1
 O  O11  1  0.23285  0.02498  0.65247  1
 O  O12  1  0.50651  0.98402  0.41567  1
 O  O13  1  0.28021  0.47503  0.34753  1
 O  O14  1  0.23285  0.97502  0.15247  1
 O  O15  1  0.50651  0.01598  0.91567  1
 O  O16  1  0.00650  0.98586  0.94219  1
 Si  Si1  1  0.50649  0.67106  0.90638  1
 Si  Si2  1  0.50649  0.32894  0.40638  1
 Si  Si3  1  0.00657  0.17109  0.59362  1
 Si  Si4  1  0.00657  0.82891  0.09362  1
 V  V1  1  0.75653  0.75001  0.50000  1
 V  V2  1  0.75653  0.24999  -0.00000  1
 V  V3  1  0.25653  0.24999  1.00000  1
 V  V4  1  0.25653  0.75001  0.50000  1
