CIF file written using JARVIS-Tools package.
data_Na4Al3Ge3BrO12
_symmetry_space_group_name_H-M  'P-43n'
_cell_length_a       9.1552
_cell_length_b       9.1552
_cell_length_c       9.1552
_cell_angle_alpha    90
_cell_angle_beta     90
_cell_angle_gamma    90

_symmetry_Int_Tables_number  218
_chemical_formula_structural  Na4Al3Ge3BrO12
_chemical_formula_sum  Na8Al6Ge6Br2O24
_cell_volume  767.3683260200982
_cell_formula_units_Z  2
loop_
  _symmetry_equiv_pos_site_id
 _symmetry_equiv_pos_as_xyz
 1  'x, y, z'
loop_
 _atom_site_type_symbol
 _atom_site_label
 _atom_site_symmetry_multiplicity
 _atom_site_fract_x
 _atom_site_fract_y
 _atom_site_fract_z
 _atom_site_fract_occupancy
 Al  Al1  1  0.75000  0.00000  0.50000  1
 Al  Al2  1  0.50000  0.75000  0.00000  1
 Al  Al3  1  0.50000  0.25000  0.00000  1
 Al  Al4  1  0.00000  0.50000  0.75000  1
 Al  Al5  1  0.00000  0.50000  0.25000  1
 Al  Al6  1  0.25000  0.00000  0.50000  1
 Br  Br1  1  0.00000  0.00000  0.00000  1
 Br  Br2  1  0.50000  0.50000  0.50000  1
 Ge  Ge1  1  0.00000  0.25000  0.50000  1
 Ge  Ge2  1  0.25000  0.50000  0.00000  1
 Ge  Ge3  1  0.50000  0.00000  0.25000  1
 Ge  Ge4  1  0.75000  0.50000  0.00000  1
 Ge  Ge5  1  0.00000  0.75000  0.50000  1
 Ge  Ge6  1  0.50000  0.00000  0.75000  1
 Na  Na1  1  0.17869  0.82131  0.82131  1
 Na  Na2  1  0.67869  0.67869  0.67869  1
 Na  Na3  1  0.82131  0.82131  0.17869  1
 Na  Na4  1  0.67869  0.32131  0.32131  1
 Na  Na5  1  0.32131  0.32131  0.67869  1
 Na  Na6  1  0.17869  0.17869  0.17869  1
 Na  Na7  1  0.32131  0.67869  0.32131  1
 Na  Na8  1  0.82131  0.17869  0.82131  1
 O  O1  1  0.92672  0.35615  0.35608  1
 O  O2  1  0.14385  0.57328  0.85608  1
 O  O3  1  0.42672  0.14392  0.14385  1
 O  O4  1  0.35608  0.92672  0.35615  1
 O  O5  1  0.85608  0.85615  0.42672  1
 O  O6  1  0.35615  0.35608  0.92672  1
 O  O7  1  0.64392  0.92672  0.64385  1
 O  O8  1  0.57328  0.14392  0.85615  1
 O  O9  1  0.64385  0.35608  0.07328  1
 O  O10  1  0.64385  0.64392  0.92672  1
 O  O11  1  0.14392  0.14385  0.42672  1
 O  O12  1  0.57328  0.85608  0.14385  1
 O  O13  1  0.42672  0.85608  0.85615  1
 O  O14  1  0.85615  0.42672  0.85608  1
 O  O15  1  0.35608  0.07328  0.64385  1
 O  O16  1  0.92672  0.64385  0.64392  1
 O  O17  1  0.07328  0.35615  0.64392  1
 O  O18  1  0.85615  0.57328  0.14392  1
 O  O19  1  0.14385  0.42672  0.14392  1
 O  O20  1  0.07328  0.64385  0.35608  1
 O  O21  1  0.35615  0.64392  0.07328  1
 O  O22  1  0.64392  0.07328  0.35615  1
 O  O23  1  0.14392  0.85615  0.57328  1
 O  O24  1  0.85608  0.14385  0.57328  1
