CIF file written using JARVIS-Tools package.
data_ThIn2Br6
_symmetry_space_group_name_H-M  'C2/c'
_cell_length_a       8.53855
_cell_length_b       8.53854
_cell_length_c       9.09572
_cell_angle_alpha    90.0278
_cell_angle_beta     90.0278
_cell_angle_gamma    119.034

_symmetry_Int_Tables_number  15
_chemical_formula_structural  ThIn2Br6
_chemical_formula_sum  Th2In4Br2
_cell_volume  579.8005535471191
_cell_formula_units_Z  2
loop_
  _symmetry_equiv_pos_site_id
 _symmetry_equiv_pos_as_xyz
 1  'x, y, z'
loop_
 _atom_site_type_symbol
 _atom_site_label
 _atom_site_symmetry_multiplicity
 _atom_site_fract_x
 _atom_site_fract_y
 _atom_site_fract_z
 _atom_site_fract_occupancy
 Br  Br1  1  0.99548  0.42435  0.78560  1
 Br  Br2  1  0.70420  0.67640  0.80577  1
 Br  Br3  1  0.29580  0.32360  0.19423  1
 Br  Br4  1  0.00452  0.57565  0.21440  1
 Br  Br5  1  0.06732  0.83961  0.55758  1
 Br  Br6  1  0.93268  0.16039  0.44242  1
 Br  Br7  1  0.83961  0.06732  0.05758  1
 Br  Br8  1  0.42435  0.99548  0.28560  1
 Br  Br9  1  0.67640  0.70420  0.30577  1
 Br  Br10  1  0.57565  0.00452  0.71440  1
 Br  Br11  1  0.16039  0.93268  0.94242  1
 Br  Br12  1  0.32360  0.29580  0.69423  1
 In  In1  1  0.37541  0.68683  0.00402  1
 In  In2  1  0.68683  0.37541  0.50402  1
 In  In3  1  0.62459  0.31317  0.99598  1
 In  In4  1  0.31317  0.62459  0.49598  1
 Th  Th1  1  0.94439  0.05561  0.75000  1
 Th  Th2  1  0.05561  0.94439  0.25000  1
