CIF file written using JARVIS-Tools package.
data_Mg2Nb2SnO8
_symmetry_space_group_name_H-M  'C2/c'
_cell_length_a       5.28995
_cell_length_b       6.05487
_cell_length_c       10.8403
_cell_angle_alpha    106.21
_cell_angle_beta     90.9956
_cell_angle_gamma    89.9983

_symmetry_Int_Tables_number  15
_chemical_formula_structural  Mg2Nb2SnO8
_chemical_formula_sum  Mg4Nb4Sn2O6
_cell_volume  333.3575531737347
_cell_formula_units_Z  2
loop_
  _symmetry_equiv_pos_site_id
 _symmetry_equiv_pos_as_xyz
 1  'x, y, z'
loop_
 _atom_site_type_symbol
 _atom_site_label
 _atom_site_symmetry_multiplicity
 _atom_site_fract_x
 _atom_site_fract_y
 _atom_site_fract_z
 _atom_site_fract_occupancy
 Mg  Mg1  1  0.75460  0.40847  0.53808  1
 Mg  Mg2  1  0.74395  0.87133  0.46373  1
 Mg  Mg3  1  0.24394  0.59421  0.46374  1
 Mg  Mg4  1  0.25459  0.13135  0.53808  1
 Nb  Nb1  1  0.72628  0.30401  0.25426  1
 Nb  Nb2  1  0.77231  0.05051  0.74754  1
 Nb  Nb3  1  0.27230  0.69866  0.74755  1
 Nb  Nb4  1  0.22628  0.95218  0.25427  1
 O  O1  1  0.03026  0.16387  0.16455  1
 O  O2  1  0.46831  0.00010  0.83728  1
 O  O3  1  0.94730  0.08298  0.38639  1
 O  O4  1  0.53033  0.00254  0.16456  1
 O  O5  1  0.60701  0.45805  0.13966  1
 O  O6  1  0.89165  0.31911  0.86209  1
 O  O7  1  0.96838  0.83886  0.83728  1
 O  O8  1  0.10694  0.68361  0.13969  1
 O  O9  1  0.11556  0.44956  0.60882  1
 O  O10  1  0.05126  0.91970  0.61542  1
 O  O11  1  0.38298  0.84170  0.39300  1
 O  O12  1  0.39158  0.54457  0.86213  1
 O  O13  1  0.61556  0.16097  0.60881  1
 O  O14  1  0.88298  0.55313  0.39299  1
 O  O15  1  0.44728  0.30526  0.38636  1
 O  O16  1  0.55127  0.69742  0.61545  1
 Sn  Sn1  1  0.74927  0.70442  0.00102  1
 Sn  Sn2  1  0.24933  0.29829  0.00078  1
