CIF file written using JARVIS-Tools package.
data_K2Dy4Cu4Se9
_symmetry_space_group_name_H-M  'C2/m'
_cell_length_a       4.10661
_cell_length_b       7.40573
_cell_length_c       15.7619
_cell_angle_alpha    93.9427
_cell_angle_beta     97.4847
_cell_angle_gamma    106.098

_symmetry_Int_Tables_number  12
_chemical_formula_structural  K2Dy4Cu4Se9
_chemical_formula_sum  K2Dy4Cu4Se9
_cell_volume  453.8628761879843
_cell_formula_units_Z  1
loop_
  _symmetry_equiv_pos_site_id
 _symmetry_equiv_pos_as_xyz
 1  'x, y, z'
loop_
 _atom_site_type_symbol
 _atom_site_label
 _atom_site_symmetry_multiplicity
 _atom_site_fract_x
 _atom_site_fract_y
 _atom_site_fract_z
 _atom_site_fract_occupancy
 Cu  Cu1  1  0.50980  0.74795  0.27212  1
 Cu  Cu2  1  0.60308  0.17851  0.02819  1
 Cu  Cu3  1  0.49020  0.25205  0.72788  1
 Cu  Cu4  1  0.39692  0.82149  0.97181  1
 Dy  Dy1  1  0.87202  0.63974  0.10438  1
 Dy  Dy2  1  0.09851  0.75319  0.44383  1
 Dy  Dy3  1  0.90149  0.24680  0.55617  1
 Dy  Dy4  1  0.12798  0.36026  0.89562  1
 K  K1  1  0.23443  0.20040  0.26859  1
 K  K2  1  0.76557  0.79960  0.73141  1
 Se  Se1  1  0.08180  0.44086  0.72240  1
 Se  Se2  1  0.47577  0.08332  0.86816  1
 Se  Se3  1  0.21312  0.34926  0.07726  1
 Se  Se4  1  0.52423  0.91668  0.13184  1
 Se  Se5  1  0.91820  0.55914  0.27760  1
 Se  Se6  1  0.69765  0.99957  0.39573  1
 Se  Se7  1  0.50000  0.50000  0.50000  1
 Se  Se8  1  0.30235  0.00043  0.60427  1
 Se  Se9  1  0.78688  0.65074  0.92274  1
