CIF file written using JARVIS-Tools package.
data_Ce2Dy2O7
_symmetry_space_group_name_H-M  'Pmma'
_cell_length_a       3.7499
_cell_length_b       15.315
_cell_length_c       13.2072
_cell_angle_alpha    30.4163
_cell_angle_beta     55.399
_cell_angle_gamma    60.6789

_symmetry_Int_Tables_number  51
_chemical_formula_structural  Ce2Dy2O7
_chemical_formula_sum  Ce4Dy4O4
_cell_volume  316.08213491088
_cell_formula_units_Z  2
loop_
  _symmetry_equiv_pos_site_id
 _symmetry_equiv_pos_as_xyz
 1  'x, y, z'
loop_
 _atom_site_type_symbol
 _atom_site_label
 _atom_site_symmetry_multiplicity
 _atom_site_fract_x
 _atom_site_fract_y
 _atom_site_fract_z
 _atom_site_fract_occupancy
 Ce  Ce1  1  0.98949  0.00000  0.00525  1
 Ce  Ce2  1  0.01051  0.50000  0.99475  1
 Ce  Ce3  1  -0.00000  0.25000  0.50000  1
 Ce  Ce4  1  -0.00000  0.75000  -0.00000  1
 Dy  Dy1  1  0.96198  0.00000  0.51901  1
 Dy  Dy2  1  -0.00000  0.25000  -0.00000  1
 Dy  Dy3  1  0.03802  0.50000  0.48099  1
 Dy  Dy4  1  0.00000  0.75000  0.50000  1
 O  O1  1  0.21497  0.00000  0.14252  1
 O  O2  1  0.24897  0.20790  0.16761  1
 O  O3  1  0.78503  0.50000  0.85748  1
 O  O4  1  0.26800  0.50000  0.11600  1
 O  O5  1  0.74570  0.26075  0.36640  1
 O  O6  1  0.25438  0.00000  0.62281  1
 O  O7  1  0.75103  0.70790  0.41658  1
 O  O8  1  0.74562  0.50000  0.37719  1
 O  O9  1  0.73200  0.00000  0.88400  1
 O  O10  1  0.25430  0.23925  0.63360  1
 O  O11  1  0.24897  0.79210  0.58342  1
 O  O12  1  0.75103  0.29210  0.83239  1
 O  O13  1  0.25430  0.76075  0.11210  1
 O  O14  1  0.74570  0.73925  0.88790  1
