CIF file written using JARVIS-Tools package.
data_WSe2
_symmetry_space_group_name_H-M  'P6_3/mmc'
_cell_length_a       3.32872
_cell_length_b       13.2296
_cell_length_c       3.32867
_cell_angle_alpha    90
_cell_angle_beta     120
_cell_angle_gamma    90

_symmetry_Int_Tables_number  194
_chemical_formula_structural  WSe2
_chemical_formula_sum  W2Se4
_cell_volume  126.94722839685528
_cell_formula_units_Z  2
loop_
  _symmetry_equiv_pos_site_id
 _symmetry_equiv_pos_as_xyz
 1  'x, y, z'
loop_
 _atom_site_type_symbol
 _atom_site_label
 _atom_site_symmetry_multiplicity
 _atom_site_fract_x
 _atom_site_fract_y
 _atom_site_fract_z
 _atom_site_fract_occupancy
 Se  Se1  1  0.33329  0.37714  0.66676  1
 Se  Se2  1  0.66671  0.87714  0.33324  1
 Se  Se3  1  0.66671  0.62286  0.33324  1
 Se  Se4  1  0.33329  0.12286  0.66676  1
 W  W1  1  0.33338  0.75000  0.66659  1
 W  W2  1  0.66662  0.25000  0.33341  1
