CIF file written using JARVIS-Tools package.
data_RbTlS2O8
_symmetry_space_group_name_H-M  'R32'
_cell_length_a       8.89083
_cell_length_b       8.89084
_cell_length_c       8.89084
_cell_angle_alpha    32.2285
_cell_angle_beta     32.2285
_cell_angle_gamma    32.2285

_symmetry_Int_Tables_number  155
_chemical_formula_structural  RbTlS2O8
_chemical_formula_sum  RbTlS2O8
_cell_volume  177.6549144775792
_cell_formula_units_Z  1
loop_
  _symmetry_equiv_pos_site_id
 _symmetry_equiv_pos_as_xyz
 1  'x, y, z'
loop_
 _atom_site_type_symbol
 _atom_site_label
 _atom_site_symmetry_multiplicity
 _atom_site_fract_x
 _atom_site_fract_y
 _atom_site_fract_z
 _atom_site_fract_occupancy
 O  O1  1  0.69864  0.69864  0.69864  1
 O  O2  1  0.30136  0.30136  0.30136  1
 O  O3  1  0.93677  0.22551  0.50893  1
 O  O4  1  0.06323  0.49107  0.77449  1
 O  O5  1  0.49107  0.77449  0.06323  1
 O  O6  1  0.50893  0.93677  0.22551  1
 O  O7  1  0.22551  0.50893  0.93677  1
 O  O8  1  0.77449  0.06323  0.49107  1
 Rb  Rb1  1  0.00000  0.00000  0.00000  1
 S  S1  1  0.75615  0.75615  0.75615  1
 S  S2  1  0.24385  0.24385  0.24385  1
 Tl  Tl1  1  0.50000  0.50000  0.50000  1
