CIF file written using JARVIS-Tools package.
data_Na3AuS2
_symmetry_space_group_name_H-M  'R-3c'
_cell_length_a       7.0928
_cell_length_b       7.0928
_cell_length_c       7.0928
_cell_angle_alpha    64.8423
_cell_angle_beta     64.8423
_cell_angle_gamma    64.8423

_symmetry_Int_Tables_number  167
_chemical_formula_structural  Na3AuS2
_chemical_formula_sum  Na6Au2S4
_cell_volume  279.0292107338726
_cell_formula_units_Z  2
loop_
  _symmetry_equiv_pos_site_id
 _symmetry_equiv_pos_as_xyz
 1  'x, y, z'
loop_
 _atom_site_type_symbol
 _atom_site_label
 _atom_site_symmetry_multiplicity
 _atom_site_fract_x
 _atom_site_fract_y
 _atom_site_fract_z
 _atom_site_fract_occupancy
 Au  Au1  1  0.50000  0.50000  0.50000  1
 Au  Au2  1  0.00000  0.00000  0.00000  1
 Na  Na1  1  0.96517  0.53483  0.25000  1
 Na  Na2  1  0.25000  0.96517  0.53483  1
 Na  Na3  1  0.53483  0.25000  0.96517  1
 Na  Na4  1  0.03483  0.46517  0.75000  1
 Na  Na5  1  0.75000  0.03483  0.46517  1
 Na  Na6  1  0.46517  0.75000  0.03483  1
 S  S1  1  0.63922  0.63922  0.63922  1
 S  S2  1  0.86078  0.86078  0.86078  1
 S  S3  1  0.13922  0.13922  0.13922  1
 S  S4  1  0.36078  0.36078  0.36078  1
