CIF file written using JARVIS-Tools package.
data_Rb2LiVS4
_symmetry_space_group_name_H-M  'Fddd'
_cell_length_a       5.78427
_cell_length_b       7.14109
_cell_length_c       11.9223
_cell_angle_alpha    84.3618
_cell_angle_beta     75.961
_cell_angle_gamma    66.1089

_symmetry_Int_Tables_number  70
_chemical_formula_structural  Rb2LiVS4
_chemical_formula_sum  Rb4Li2V2S8
_cell_volume  436.81820949617725
_cell_formula_units_Z  2
loop_
  _symmetry_equiv_pos_site_id
 _symmetry_equiv_pos_as_xyz
 1  'x, y, z'
loop_
 _atom_site_type_symbol
 _atom_site_label
 _atom_site_symmetry_multiplicity
 _atom_site_fract_x
 _atom_site_fract_y
 _atom_site_fract_z
 _atom_site_fract_occupancy
 Li  Li1  1  0.12500  0.75000  0.75000  1
 Li  Li2  1  0.87500  0.25000  0.25000  1
 Rb  Rb1  1  0.44649  0.75000  0.10702  1
 Rb  Rb2  1  0.19649  0.25000  0.60702  1
 Rb  Rb3  1  0.55351  0.25000  0.89298  1
 Rb  Rb4  1  0.80351  0.75000  0.39298  1
 S  S1  1  0.19796  0.05929  0.35687  1
 S  S2  1  0.80204  0.94071  0.64313  1
 S  S3  1  0.44517  0.44071  0.35687  1
 S  S4  1  0.25725  0.94071  0.85687  1
 S  S5  1  0.55483  0.55929  0.64313  1
 S  S6  1  0.88588  0.55929  0.85687  1
 S  S7  1  0.74275  0.05929  0.14313  1
 S  S8  1  0.11412  0.44071  0.14313  1
 V  V1  1  0.62500  0.75000  0.75000  1
 V  V2  1  0.37500  0.25000  0.25000  1
