CIF file written using JARVIS-Tools package.
data_K2PbO3
_symmetry_space_group_name_H-M  'P6_3/mcm'
_cell_length_a       6.07722
_cell_length_b       6.07722
_cell_length_c       12.4311
_cell_angle_alpha    90
_cell_angle_beta     90
_cell_angle_gamma    120

_symmetry_Int_Tables_number  193
_chemical_formula_structural  K2PbO3
_chemical_formula_sum  K8Pb4O2
_cell_volume  397.602615352964
_cell_formula_units_Z  4
loop_
  _symmetry_equiv_pos_site_id
 _symmetry_equiv_pos_as_xyz
 1  'x, y, z'
loop_
 _atom_site_type_symbol
 _atom_site_label
 _atom_site_symmetry_multiplicity
 _atom_site_fract_x
 _atom_site_fract_y
 _atom_site_fract_z
 _atom_site_fract_occupancy
 K  K1  1  0.00000  0.31117  0.75000  1
 K  K2  1  0.31117  0.00000  0.75000  1
 K  K3  1  -0.00000  0.68883  0.25000  1
 K  K4  1  0.68883  0.68883  0.75000  1
 K  K5  1  0.00000  0.00000  0.00000  1
 K  K6  1  0.68883  -0.00000  0.25000  1
 K  K7  1  0.00000  0.00000  0.50000  1
 K  K8  1  0.31117  0.31117  0.25000  1
 O  O1  1  0.00000  0.38360  0.39839  1
 O  O2  1  -0.00000  0.61640  0.89839  1
 O  O3  1  0.61640  0.61640  0.39839  1
 O  O4  1  0.38360  0.38360  0.89839  1
 O  O5  1  0.38360  0.38360  0.60161  1
 O  O6  1  -0.00000  0.61640  0.60161  1
 O  O7  1  0.61640  -0.00000  0.89839  1
 O  O8  1  0.38360  0.00000  0.10161  1
 O  O9  1  0.00000  0.38360  0.10161  1
 O  O10  1  0.38360  0.00000  0.39839  1
 O  O11  1  0.61640  -0.00000  0.60161  1
 O  O12  1  0.61640  0.61640  0.10161  1
 Pb  Pb1  1  0.66667  0.33333  0.50000  1
 Pb  Pb2  1  0.33333  0.66667  0.00000  1
 Pb  Pb3  1  0.66667  0.33333  0.00000  1
 Pb  Pb4  1  0.33333  0.66667  0.50000  1
