CIF file written using JARVIS-Tools package.
data_PuNi
_symmetry_space_group_name_H-M  'Cmcm'
_cell_length_a       2.96252
_cell_length_b       3.45184
_cell_length_c       6.18895
_cell_angle_alpha    90
_cell_angle_beta     103.848
_cell_angle_gamma    90

_symmetry_Int_Tables_number  63
_chemical_formula_structural  PuNi
_chemical_formula_sum  Pu2Ni2
_cell_volume  61.44972913923698
_cell_formula_units_Z  2
loop_
  _symmetry_equiv_pos_site_id
 _symmetry_equiv_pos_as_xyz
 1  'x, y, z'
loop_
 _atom_site_type_symbol
 _atom_site_label
 _atom_site_symmetry_multiplicity
 _atom_site_fract_x
 _atom_site_fract_y
 _atom_site_fract_z
 _atom_site_fract_occupancy
 Ni  Ni1  1  0.43610  0.75000  0.87219  1
 Ni  Ni2  1  0.56390  0.25000  0.12781  1
 Pu  Pu1  1  0.19950  0.75000  0.39899  1
 Pu  Pu2  1  0.80050  0.25000  0.60101  1
