CIF file written using JARVIS-Tools package.
data_Nb3Cl8
_symmetry_space_group_name_H-M  'P-3m1'
_cell_length_a       6.79345
_cell_length_b       6.79345
_cell_length_c       12.2815
_cell_angle_alpha    90
_cell_angle_beta     90
_cell_angle_gamma    120

_symmetry_Int_Tables_number  164
_chemical_formula_structural  Nb3Cl8
_chemical_formula_sum  Nb6Cl6
_cell_volume  490.86684478662164
_cell_formula_units_Z  2
loop_
  _symmetry_equiv_pos_site_id
 _symmetry_equiv_pos_as_xyz
 1  'x, y, z'
loop_
 _atom_site_type_symbol
 _atom_site_label
 _atom_site_symmetry_multiplicity
 _atom_site_fract_x
 _atom_site_fract_y
 _atom_site_fract_z
 _atom_site_fract_occupancy
 Cl  Cl1  1  0.83583  0.67166  0.86435  1
 Cl  Cl2  1  0.66667  0.33333  0.09533  1
 Cl  Cl3  1  0.33333  0.66667  0.90467  1
 Cl  Cl4  1  0.33333  0.66667  0.35716  1
 Cl  Cl5  1  0.66667  0.33333  0.64284  1
 Cl  Cl6  1  0.66426  0.83213  0.61867  1
 Cl  Cl7  1  0.16417  0.83583  0.13565  1
 Cl  Cl8  1  0.67166  0.83583  0.13565  1
 Cl  Cl9  1  0.83583  0.16417  0.86435  1
 Cl  Cl10  1  0.32834  0.16417  0.86435  1
 Cl  Cl11  1  0.16787  0.33574  0.61867  1
 Cl  Cl12  1  0.33574  0.16787  0.38133  1
 Cl  Cl13  1  0.83213  0.16787  0.38133  1
 Cl  Cl14  1  0.83213  0.66426  0.38133  1
 Cl  Cl15  1  0.16787  0.83213  0.61867  1
 Cl  Cl16  1  0.16417  0.32834  0.13565  1
 Nb  Nb1  1  0.05579  0.52789  0.75369  1
 Nb  Nb2  1  0.47211  0.52789  0.75369  1
 Nb  Nb3  1  0.47211  0.94421  0.75369  1
 Nb  Nb4  1  0.52789  0.47211  0.24631  1
 Nb  Nb5  1  0.94421  0.47211  0.24631  1
 Nb  Nb6  1  0.52789  0.05579  0.24631  1
