CIF file written using JARVIS-Tools package.
data_Nb5Ni4P4
_symmetry_space_group_name_H-M  'I4/m'
_cell_length_a       3.55048
_cell_length_b       7.31065
_cell_length_c       7.31064
_cell_angle_alpha    86.6195
_cell_angle_beta     75.9465
_cell_angle_gamma    75.9464

_symmetry_Int_Tables_number  87
_chemical_formula_structural  Nb5Ni4P4
_chemical_formula_sum  Nb5Ni4P4
_cell_volume  178.56805174776025
_cell_formula_units_Z  1
loop_
  _symmetry_equiv_pos_site_id
 _symmetry_equiv_pos_as_xyz
 1  'x, y, z'
loop_
 _atom_site_type_symbol
 _atom_site_label
 _atom_site_symmetry_multiplicity
 _atom_site_fract_x
 _atom_site_fract_y
 _atom_site_fract_z
 _atom_site_fract_occupancy
 Nb  Nb1  1  0.80559  0.06401  0.32481  1
 Nb  Nb2  1  0.13040  0.67519  0.06401  1
 Nb  Nb3  1  0.86960  0.32481  0.93599  1
 Nb  Nb4  1  0.19441  0.93599  0.67519  1
 Nb  Nb5  1  0.50000  0.00000  0.00000  1
 Ni  Ni1  1  0.91464  0.69489  0.47583  1
 Ni  Ni2  1  0.08536  0.30511  0.52417  1
 Ni  Ni3  1  0.60953  0.47583  0.30511  1
 Ni  Ni4  1  0.39047  0.52417  0.69489  1
 P  P1  1  0.55602  0.20380  0.68417  1
 P  P2  1  0.24019  0.31583  0.20380  1
 P  P3  1  0.75981  0.68417  0.79620  1
 P  P4  1  0.44398  0.79620  0.31583  1
