CIF file written using JARVIS-Tools package.
data_P2Pd3S8
_symmetry_space_group_name_H-M  'P-3m1'
_cell_length_a       6.91683
_cell_length_b       6.91683
_cell_length_c       7.33542
_cell_angle_alpha    90
_cell_angle_beta     90
_cell_angle_gamma    120

_symmetry_Int_Tables_number  164
_chemical_formula_structural  P2Pd3S8
_chemical_formula_sum  P2Pd3S8
_cell_volume  303.92744383299635
_cell_formula_units_Z  1
loop_
  _symmetry_equiv_pos_site_id
 _symmetry_equiv_pos_as_xyz
 1  'x, y, z'
loop_
 _atom_site_type_symbol
 _atom_site_label
 _atom_site_symmetry_multiplicity
 _atom_site_fract_x
 _atom_site_fract_y
 _atom_site_fract_z
 _atom_site_fract_occupancy
 P  P1  1  0.66667  0.33333  0.33415  1
 P  P2  1  0.33333  0.66667  0.66585  1
 Pd  Pd1  1  0.50000  -0.00000  0.00000  1
 Pd  Pd2  1  -0.00000  0.50000  0.00000  1
 Pd  Pd3  1  0.50000  0.50000  0.00000  1
 S  S1  1  0.17917  0.35834  0.81310  1
 S  S2  1  0.33333  0.66667  0.40418  1
 S  S3  1  0.66667  0.33333  0.59582  1
 S  S4  1  0.82083  0.64166  0.18690  1
 S  S5  1  0.82083  0.17917  0.18690  1
 S  S6  1  0.35834  0.17917  0.18690  1
 S  S7  1  0.64166  0.82083  0.81310  1
 S  S8  1  0.17917  0.82083  0.81310  1
