CIF file written using JARVIS-Tools package.
data_LiMnNbO4
_symmetry_space_group_name_H-M  'P4_322'
_cell_length_a       5.92486
_cell_length_b       5.92486
_cell_length_c       8.49372
_cell_angle_alpha    90
_cell_angle_beta     90
_cell_angle_gamma    90

_symmetry_Int_Tables_number  95
_chemical_formula_structural  LiMnNbO4
_chemical_formula_sum  Li4Mn4Nb4O6
_cell_volume  298.1631565739225
_cell_formula_units_Z  4
loop_
  _symmetry_equiv_pos_site_id
 _symmetry_equiv_pos_as_xyz
 1  'x, y, z'
loop_
 _atom_site_type_symbol
 _atom_site_label
 _atom_site_symmetry_multiplicity
 _atom_site_fract_x
 _atom_site_fract_y
 _atom_site_fract_z
 _atom_site_fract_occupancy
 Li  Li1  1  0.00000  0.24480  0.00000  1
 Li  Li2  1  0.00000  0.75520  0.50000  1
 Li  Li3  1  0.24480  0.00000  0.25000  1
 Li  Li4  1  0.75520  0.00000  0.75000  1
 Mn  Mn1  1  0.25543  0.50000  0.25000  1
 Mn  Mn2  1  0.50000  0.25543  0.00000  1
 Mn  Mn3  1  0.50000  0.74457  0.50000  1
 Mn  Mn4  1  0.74457  0.50000  0.75000  1
 Nb  Nb1  1  0.24933  0.24933  0.62500  1
 Nb  Nb2  1  0.24933  0.75067  0.87500  1
 Nb  Nb3  1  0.75067  0.24933  0.37500  1
 Nb  Nb4  1  0.75067  0.75067  0.12500  1
 O  O1  1  0.02154  0.26472  0.25503  1
 O  O2  1  0.97846  0.26472  0.74497  1
 O  O3  1  0.26472  0.02154  -0.00503  1
 O  O4  1  0.26472  0.97846  0.50503  1
 O  O5  1  0.26280  0.49649  0.01669  1
 O  O6  1  0.26280  0.50351  0.48331  1
 O  O7  1  0.02154  0.73528  0.24497  1
 O  O8  1  0.73528  0.02154  0.00503  1
 O  O9  1  0.50351  0.26280  0.76669  1
 O  O10  1  0.50351  0.73720  0.73331  1
 O  O11  1  0.73720  0.50351  0.51669  1
 O  O12  1  0.73720  0.49649  0.98331  1
 O  O13  1  0.49649  0.26280  0.23331  1
 O  O14  1  0.73528  0.97846  0.49497  1
 O  O15  1  0.49649  0.73720  0.26669  1
 O  O16  1  0.97846  0.73528  0.75503  1
