CIF file written using JARVIS-Tools package.
data_Re3Mo
_symmetry_space_group_name_H-M  'P6_3/mmc'
_cell_length_a       5.58422
_cell_length_b       5.58422
_cell_length_c       4.53652
_cell_angle_alpha    90
_cell_angle_beta     90
_cell_angle_gamma    120

_symmetry_Int_Tables_number  194
_chemical_formula_structural  Re3Mo
_chemical_formula_sum  Re6Mo2
_cell_volume  122.51218191800693
_cell_formula_units_Z  2
loop_
  _symmetry_equiv_pos_site_id
 _symmetry_equiv_pos_as_xyz
 1  'x, y, z'
loop_
 _atom_site_type_symbol
 _atom_site_label
 _atom_site_symmetry_multiplicity
 _atom_site_fract_x
 _atom_site_fract_y
 _atom_site_fract_z
 _atom_site_fract_occupancy
 Mo  Mo1  1  0.66667  0.33333  0.75000  1
 Mo  Mo2  1  0.33333  0.66667  0.25000  1
 Re  Re1  1  0.83383  0.16617  0.25000  1
 Re  Re2  1  0.83383  0.66766  0.25000  1
 Re  Re3  1  0.33234  0.16617  0.25000  1
 Re  Re4  1  0.16617  0.83383  0.75000  1
 Re  Re5  1  0.16617  0.33234  0.75000  1
 Re  Re6  1  0.66766  0.83383  0.75000  1
