CIF file written using JARVIS-Tools package.
data_AgIO3
_symmetry_space_group_name_H-M  'Pnma'
_cell_length_a       6.09018
_cell_length_b       6.472
_cell_length_c       7.80755
_cell_angle_alpha    90
_cell_angle_beta     90
_cell_angle_gamma    90

_symmetry_Int_Tables_number  62
_chemical_formula_structural  AgIO3
_chemical_formula_sum  Ag4I4O2
_cell_volume  307.7395895430092
_cell_formula_units_Z  4
loop_
  _symmetry_equiv_pos_site_id
 _symmetry_equiv_pos_as_xyz
 1  'x, y, z'
loop_
 _atom_site_type_symbol
 _atom_site_label
 _atom_site_symmetry_multiplicity
 _atom_site_fract_x
 _atom_site_fract_y
 _atom_site_fract_z
 _atom_site_fract_occupancy
 Ag  Ag1  1  0.00000  0.50000  0.00000  1
 Ag  Ag2  1  0.00000  0.50000  0.50000  1
 Ag  Ag3  1  0.50000  0.00000  0.00000  1
 Ag  Ag4  1  0.50000  0.00000  0.50000  1
 I  I1  1  0.00858  0.00754  0.25000  1
 I  I2  1  0.49142  0.50754  0.25000  1
 I  I3  1  0.50858  0.49246  0.75000  1
 I  I4  1  0.99142  0.99246  0.75000  1
 O  O1  1  0.13169  0.16459  0.07496  1
 O  O2  1  0.86831  0.83541  0.57496  1
 O  O3  1  0.22731  0.39171  0.75000  1
 O  O4  1  0.27269  0.89171  0.75000  1
 O  O5  1  0.13169  0.16459  0.42504  1
 O  O6  1  0.72731  0.10829  0.25000  1
 O  O7  1  0.63169  0.33541  0.92504  1
 O  O8  1  0.63169  0.33541  0.57496  1
 O  O9  1  0.36831  0.66459  0.07496  1
 O  O10  1  0.77269  0.60829  0.25000  1
 O  O11  1  0.36831  0.66459  0.42504  1
 O  O12  1  0.86831  0.83541  0.92504  1
