CIF file written using JARVIS-Tools package.
data_KLi3PbO4
_symmetry_space_group_name_H-M  'P-1'
_cell_length_a       5.94591
_cell_length_b       5.97892
_cell_length_c       6.95704
_cell_angle_alpha    106.674
_cell_angle_beta     108.087
_cell_angle_gamma    88.4008

_symmetry_Int_Tables_number  2
_chemical_formula_structural  KLi3PbO4
_chemical_formula_sum  K2Li6Pb2O8
_cell_volume  224.708289612263
_cell_formula_units_Z  2
loop_
  _symmetry_equiv_pos_site_id
 _symmetry_equiv_pos_as_xyz
 1  'x, y, z'
loop_
 _atom_site_type_symbol
 _atom_site_label
 _atom_site_symmetry_multiplicity
 _atom_site_fract_x
 _atom_site_fract_y
 _atom_site_fract_z
 _atom_site_fract_occupancy
 K  K1  1  0.51063  0.99088  0.25046  1
 K  K2  1  0.48937  0.00912  0.74954  1
 Li  Li1  1  0.05139  0.12693  0.90660  1
 Li  Li2  1  0.94861  0.87307  0.09340  1
 Li  Li3  1  0.68188  0.45920  0.15380  1
 Li  Li4  1  0.06450  0.16535  0.44704  1
 Li  Li5  1  0.93550  0.83465  0.55296  1
 Li  Li6  1  0.31812  0.54080  0.84620  1
 O  O1  1  0.06546  0.76923  0.83532  1
 O  O2  1  0.34390  0.32621  0.02682  1
 O  O3  1  0.65610  0.67379  0.97318  1
 O  O4  1  0.12025  0.83200  0.36659  1
 O  O5  1  0.64050  0.63842  0.43329  1
 O  O6  1  0.35950  0.36158  0.56671  1
 O  O7  1  0.93454  0.23077  0.16468  1
 O  O8  1  0.87975  0.16800  0.63341  1
 Pb  Pb1  1  0.75869  0.50547  0.70497  1
 Pb  Pb2  1  0.24131  0.49453  0.29503  1
