CIF file written using JARVIS-Tools package.
data_CeP2Rh2
_symmetry_space_group_name_H-M  'P4/nmm'
_cell_length_a       4.18122
_cell_length_b       4.18122
_cell_length_c       9.4947
_cell_angle_alpha    90
_cell_angle_beta     90
_cell_angle_gamma    90

_symmetry_Int_Tables_number  129
_chemical_formula_structural  CeP2Rh2
_chemical_formula_sum  Ce2P4Rh4
_cell_volume  165.99168512782234
_cell_formula_units_Z  2
loop_
  _symmetry_equiv_pos_site_id
 _symmetry_equiv_pos_as_xyz
 1  'x, y, z'
loop_
 _atom_site_type_symbol
 _atom_site_label
 _atom_site_symmetry_multiplicity
 _atom_site_fract_x
 _atom_site_fract_y
 _atom_site_fract_z
 _atom_site_fract_occupancy
 Ce  Ce1  1  0.00000  0.50000  0.74446  1
 Ce  Ce2  1  0.50000  0.00000  0.25554  1
 P  P1  1  0.00000  0.50000  0.13825  1
 P  P2  1  0.50000  0.00000  0.86175  1
 P  P3  1  0.50000  0.50000  0.50000  1
 P  P4  1  0.00000  0.00000  0.50000  1
 Rh  Rh1  1  0.00000  0.50000  0.38693  1
 Rh  Rh2  1  0.50000  0.00000  0.61307  1
 Rh  Rh3  1  0.50000  0.50000  0.00000  1
 Rh  Rh4  1  0.00000  0.00000  0.00000  1
