CIF file written using JARVIS-Tools package.
data_MnNiBi2O6
_symmetry_space_group_name_H-M  'P2_1/c'
_cell_length_a       5.40182
_cell_length_b       5.64083
_cell_length_c       9.33945
_cell_angle_alpha    90
_cell_angle_beta     125.043
_cell_angle_gamma    90

_symmetry_Int_Tables_number  14
_chemical_formula_structural  MnNiBi2O6
_chemical_formula_sum  Mn2Ni2Bi4O2
_cell_volume  232.9903369784779
_cell_formula_units_Z  2
loop_
  _symmetry_equiv_pos_site_id
 _symmetry_equiv_pos_as_xyz
 1  'x, y, z'
loop_
 _atom_site_type_symbol
 _atom_site_label
 _atom_site_symmetry_multiplicity
 _atom_site_fract_x
 _atom_site_fract_y
 _atom_site_fract_z
 _atom_site_fract_occupancy
 Bi  Bi1  1  0.26040  0.94207  0.25077  1
 Bi  Bi2  1  0.73960  0.44207  0.24923  1
 Bi  Bi3  1  0.26040  0.55793  0.75077  1
 Bi  Bi4  1  0.73960  0.05793  0.74923  1
 Mn  Mn1  1  -0.00000  0.00000  0.50000  1
 Mn  Mn2  1  0.00000  0.50000  0.00000  1
 Ni  Ni1  1  0.50000  0.50000  0.50000  1
 Ni  Ni2  1  0.50000  0.00000  0.00000  1
 O  O1  1  0.76320  0.78895  0.95819  1
 O  O2  1  0.33171  0.69281  0.04011  1
 O  O3  1  0.16214  0.52331  0.24721  1
 O  O4  1  0.23680  0.21105  0.04181  1
 O  O5  1  0.33171  0.80719  0.54011  1
 O  O6  1  0.83786  0.02331  0.25279  1
 O  O7  1  0.66829  0.30719  0.95989  1
 O  O8  1  0.66829  0.19281  0.45989  1
 O  O9  1  0.16214  0.97669  0.74721  1
 O  O10  1  0.76320  0.71105  0.45819  1
 O  O11  1  0.23680  0.28895  0.54181  1
 O  O12  1  0.83786  0.47669  0.75279  1
