CIF file written using JARVIS-Tools package.
data_Na2CrCSO7
_symmetry_space_group_name_H-M  'P2_1/m'
_cell_length_a       5.0765
_cell_length_b       7.24081
_cell_length_c       8.65963
_cell_angle_alpha    90
_cell_angle_beta     91.5477
_cell_angle_gamma    90

_symmetry_Int_Tables_number  11
_chemical_formula_structural  Na2CrCSO7
_chemical_formula_sum  Na4Cr2C2S2O4
_cell_volume  318.1945632991973
_cell_formula_units_Z  2
loop_
  _symmetry_equiv_pos_site_id
 _symmetry_equiv_pos_as_xyz
 1  'x, y, z'
loop_
 _atom_site_type_symbol
 _atom_site_label
 _atom_site_symmetry_multiplicity
 _atom_site_fract_x
 _atom_site_fract_y
 _atom_site_fract_z
 _atom_site_fract_occupancy
 C  C1  1  0.27856  0.25000  0.08546  1
 C  C2  1  0.72144  0.75000  0.91454  1
 Cr  Cr1  1  0.21542  0.25000  0.36564  1
 Cr  Cr2  1  0.78458  0.75000  0.63436  1
 Na  Na1  1  0.75880  -0.00205  0.21846  1
 Na  Na2  1  0.75880  0.50205  0.21846  1
 Na  Na3  1  0.24120  0.49795  0.78154  1
 Na  Na4  1  0.24120  0.00205  0.78154  1
 O  O1  1  0.68782  0.75000  0.05753  1
 O  O2  1  0.95363  0.75000  0.85066  1
 O  O3  1  0.47432  0.25000  0.18935  1
 O  O4  1  0.20141  0.91777  0.31242  1
 O  O5  1  0.20141  0.58223  0.31242  1
 O  O6  1  0.04637  0.25000  0.14934  1
 O  O7  1  0.57714  0.75000  0.42285  1
 O  O8  1  0.79859  0.08223  0.68758  1
 O  O9  1  0.16218  0.75000  0.55430  1
 O  O10  1  0.79859  0.41777  0.68758  1
 O  O11  1  0.83782  0.25000  0.44570  1
 O  O12  1  0.52568  0.75000  0.81065  1
 O  O13  1  0.42286  0.25000  0.57715  1
 O  O14  1  0.31218  0.25000  0.94247  1
 S  S1  1  0.71961  0.25000  0.60316  1
 S  S2  1  0.28039  0.75000  0.39684  1
