CIF file written using JARVIS-Tools package.
data_ZnGeO3
_symmetry_space_group_name_H-M  'R3c'
_cell_length_a       5.08927
_cell_length_b       5.08927
_cell_length_c       5.29839
_cell_angle_alpha    61.2973
_cell_angle_beta     61.2974
_cell_angle_gamma    60.0001

_symmetry_Int_Tables_number  161
_chemical_formula_structural  ZnGeO3
_chemical_formula_sum  Zn2Ge2O6
_cell_volume  98.89708544235877
_cell_formula_units_Z  2
loop_
  _symmetry_equiv_pos_site_id
 _symmetry_equiv_pos_as_xyz
 1  'x, y, z'
loop_
 _atom_site_type_symbol
 _atom_site_label
 _atom_site_symmetry_multiplicity
 _atom_site_fract_x
 _atom_site_fract_y
 _atom_site_fract_z
 _atom_site_fract_occupancy
 Ge  Ge1  1  0.49873  0.49873  0.50381  1
 Ge  Ge2  1  0.99873  0.99873  0.00381  1
 O  O1  1  0.27295  0.63335  0.21959  1
 O  O2  1  0.87412  0.27295  0.21959  1
 O  O3  1  0.63335  0.87412  0.21959  1
 O  O4  1  0.13335  0.77295  0.71959  1
 O  O5  1  0.37412  0.13335  0.71959  1
 O  O6  1  0.77295  0.37412  0.71959  1
 Zn  Zn1  1  0.72345  0.72345  0.82963  1
 Zn  Zn2  1  0.22345  0.22345  0.32963  1
