CIF file written using JARVIS-Tools package.
data_InP3
_symmetry_space_group_name_H-M  'R-3m'
_cell_length_a       5.52273
_cell_length_b       5.52273
_cell_length_c       5.52273
_cell_angle_alpha    86.1642
_cell_angle_beta     86.1642
_cell_angle_gamma    86.1642

_symmetry_Int_Tables_number  166
_chemical_formula_structural  InP3
_chemical_formula_sum  In2P6
_cell_volume  167.36232489971823
_cell_formula_units_Z  2
loop_
  _symmetry_equiv_pos_site_id
 _symmetry_equiv_pos_as_xyz
 1  'x, y, z'
loop_
 _atom_site_type_symbol
 _atom_site_label
 _atom_site_symmetry_multiplicity
 _atom_site_fract_x
 _atom_site_fract_y
 _atom_site_fract_z
 _atom_site_fract_occupancy
 In  In1  1  0.27318  0.27318  0.27318  1
 In  In2  1  0.72682  0.72682  0.72682  1
 P  P1  1  0.79735  0.24330  0.79735  1
 P  P2  1  0.79735  0.79735  0.24330  1
 P  P3  1  0.24330  0.79735  0.79735  1
 P  P4  1  0.75670  0.20265  0.20265  1
 P  P5  1  0.20265  0.75670  0.20265  1
 P  P6  1  0.20265  0.20265  0.75670  1
