CIF file written using JARVIS-Tools package.
data_ScCuSi
_symmetry_space_group_name_H-M  'P-62m'
_cell_length_a       6.43599
_cell_length_b       6.43599
_cell_length_c       3.95068
_cell_angle_alpha    90
_cell_angle_beta     90
_cell_angle_gamma    120

_symmetry_Int_Tables_number  189
_chemical_formula_structural  ScCuSi
_chemical_formula_sum  Sc3Cu3Si3
_cell_volume  141.72069736950883
_cell_formula_units_Z  3
loop_
  _symmetry_equiv_pos_site_id
 _symmetry_equiv_pos_as_xyz
 1  'x, y, z'
loop_
 _atom_site_type_symbol
 _atom_site_label
 _atom_site_symmetry_multiplicity
 _atom_site_fract_x
 _atom_site_fract_y
 _atom_site_fract_z
 _atom_site_fract_occupancy
 Cu  Cu1  1  0.75598  -0.00000  0.00000  1
 Cu  Cu2  1  -0.00000  0.75598  0.00000  1
 Cu  Cu3  1  0.24402  0.24402  0.00000  1
 Sc  Sc1  1  0.57059  0.57059  0.50000  1
 Sc  Sc2  1  0.00000  0.42941  0.50000  1
 Sc  Sc3  1  0.42941  0.00000  0.50000  1
 Si  Si1  1  0.66667  0.33333  0.00000  1
 Si  Si2  1  0.33333  0.66667  0.00000  1
 Si  Si3  1  0.00000  0.00000  0.50000  1
