CIF file written using JARVIS-Tools package.
data_CoAsRh
_symmetry_space_group_name_H-M  'Pnma'
_cell_length_a       3.79903
_cell_length_b       5.96894
_cell_length_c       7.01969
_cell_angle_alpha    90
_cell_angle_beta     90
_cell_angle_gamma    90

_symmetry_Int_Tables_number  62
_chemical_formula_structural  CoAsRh
_chemical_formula_sum  Co4As4Rh4
_cell_volume  159.17970572337137
_cell_formula_units_Z  4
loop_
  _symmetry_equiv_pos_site_id
 _symmetry_equiv_pos_as_xyz
 1  'x, y, z'
loop_
 _atom_site_type_symbol
 _atom_site_label
 _atom_site_symmetry_multiplicity
 _atom_site_fract_x
 _atom_site_fract_y
 _atom_site_fract_z
 _atom_site_fract_occupancy
 As  As1  1  0.75000  0.26307  0.37505  1
 As  As2  1  0.25000  0.23693  0.87505  1
 As  As3  1  0.25000  0.73693  0.62495  1
 As  As4  1  0.75000  0.76307  0.12495  1
 Co  Co1  1  0.75000  0.14338  0.06267  1
 Co  Co2  1  0.25000  0.85662  0.93733  1
 Co  Co3  1  0.75000  0.64338  0.43733  1
 Co  Co4  1  0.25000  0.35662  0.56267  1
 Rh  Rh1  1  0.25000  0.46575  0.16944  1
 Rh  Rh2  1  0.25000  0.96575  0.33056  1
 Rh  Rh3  1  0.75000  0.03425  0.66944  1
 Rh  Rh4  1  0.75000  0.53425  0.83056  1
