CIF file written using JARVIS-Tools package.
data_LiCr3O8
_symmetry_space_group_name_H-M  'C2/m'
_cell_length_a       4.97656
_cell_length_b       4.97656
_cell_length_c       6.15511
_cell_angle_alpha    89.2276
_cell_angle_beta     89.2276
_cell_angle_gamma    67.0206

_symmetry_Int_Tables_number  12
_chemical_formula_structural  LiCr3O8
_chemical_formula_sum  LiCr3O8
_cell_volume  140.32340895277608
_cell_formula_units_Z  1
loop_
  _symmetry_equiv_pos_site_id
 _symmetry_equiv_pos_as_xyz
 1  'x, y, z'
loop_
 _atom_site_type_symbol
 _atom_site_label
 _atom_site_symmetry_multiplicity
 _atom_site_fract_x
 _atom_site_fract_y
 _atom_site_fract_z
 _atom_site_fract_occupancy
 Cr  Cr1  1  0.64184  0.64184  0.25529  1
 Cr  Cr2  1  0.35816  0.35816  0.74471  1
 Cr  Cr3  1  0.00000  -0.00000  0.50000  1
 Li  Li1  1  0.00000  0.00000  0.00000  1
 O  O1  1  0.74010  0.74010  0.02829  1
 O  O2  1  0.25990  0.25990  0.97171  1
 O  O3  1  0.78099  0.26866  0.27004  1
 O  O4  1  0.21901  0.73134  0.72996  1
 O  O5  1  0.77123  0.77123  0.45852  1
 O  O6  1  0.26866  0.78099  0.27004  1
 O  O7  1  0.22877  0.22877  0.54148  1
 O  O8  1  0.73134  0.21901  0.72996  1
