CIF file written using JARVIS-Tools package.
data_Dy3Al2
_symmetry_space_group_name_H-M  'P4_2/mnm'
_cell_length_a       8.21141
_cell_length_b       8.21141
_cell_length_c       7.54984
_cell_angle_alpha    90
_cell_angle_beta     90
_cell_angle_gamma    90

_symmetry_Int_Tables_number  136
_chemical_formula_structural  Dy3Al2
_chemical_formula_sum  Dy2Al8
_cell_volume  509.06518259706934
_cell_formula_units_Z  4
loop_
  _symmetry_equiv_pos_site_id
 _symmetry_equiv_pos_as_xyz
 1  'x, y, z'
loop_
 _atom_site_type_symbol
 _atom_site_label
 _atom_site_symmetry_multiplicity
 _atom_site_fract_x
 _atom_site_fract_y
 _atom_site_fract_z
 _atom_site_fract_occupancy
 Al  Al1  1  0.38066  0.38066  0.45025  1
 Al  Al2  1  0.38066  0.38066  0.06215  1
 Al  Al3  1  0.11934  0.88066  0.95025  1
 Al  Al4  1  0.11934  0.88066  0.56215  1
 Al  Al5  1  0.61934  0.61934  0.45025  1
 Al  Al6  1  0.61934  0.61934  0.06215  1
 Al  Al7  1  0.88066  0.11934  0.56215  1
 Al  Al8  1  0.88066  0.11934  0.95025  1
 Dy  Dy1  1  0.50000  0.00000  0.00619  1
 Dy  Dy2  1  0.64952  0.35048  0.75620  1
 Dy  Dy3  1  0.50000  0.00000  0.50619  1
 Dy  Dy4  1  0.20301  0.20301  0.75621  1
 Dy  Dy5  1  0.85048  0.85048  0.25620  1
 Dy  Dy6  1  0.14952  0.14952  0.25620  1
 Dy  Dy7  1  0.70301  0.29699  0.25621  1
 Dy  Dy8  1  0.00000  0.50000  0.00619  1
 Dy  Dy9  1  0.79699  0.79699  0.75621  1
 Dy  Dy10  1  0.35048  0.64952  0.75620  1
 Dy  Dy11  1  0.29699  0.70301  0.25621  1
 Dy  Dy12  1  0.00000  0.50000  0.50619  1
