CIF file written using JARVIS-Tools package.
data_In5CuS8
_symmetry_space_group_name_H-M  'F-43m'
_cell_length_a       7.6424
_cell_length_b       7.6424
_cell_length_c       7.64239
_cell_angle_alpha    60
_cell_angle_beta     60
_cell_angle_gamma    60

_symmetry_Int_Tables_number  216
_chemical_formula_structural  In5CuS8
_chemical_formula_sum  In5CuS8
_cell_volume  315.62603211099685
_cell_formula_units_Z  1
loop_
  _symmetry_equiv_pos_site_id
 _symmetry_equiv_pos_as_xyz
 1  'x, y, z'
loop_
 _atom_site_type_symbol
 _atom_site_label
 _atom_site_symmetry_multiplicity
 _atom_site_fract_x
 _atom_site_fract_y
 _atom_site_fract_z
 _atom_site_fract_occupancy
 Cu  Cu1  1  0.25000  0.25000  0.25000  1
 In  In1  1  0.14374  0.61875  0.61875  1
 In  In2  1  0.61875  0.14374  0.61875  1
 In  In3  1  0.00000  0.00000  0.00000  1
 In  In4  1  0.61875  0.61875  0.14374  1
 In  In5  1  0.61875  0.61875  0.61875  1
 S  S1  1  0.40206  0.86598  0.86598  1
 S  S2  1  0.86996  0.37668  0.37668  1
 S  S3  1  0.37668  0.86996  0.37668  1
 S  S4  1  0.86598  0.40206  0.86598  1
 S  S5  1  0.37668  0.37668  0.86996  1
 S  S6  1  0.86598  0.86598  0.40206  1
 S  S7  1  0.37668  0.37668  0.37668  1
 S  S8  1  0.86598  0.86598  0.86598  1
