CIF file written using JARVIS-Tools package.
data_Nd2Be2SiO7
_symmetry_space_group_name_H-M  'P-42_1m'
_cell_length_a       7.51158
_cell_length_b       7.51158
_cell_length_c       4.89563
_cell_angle_alpha    90
_cell_angle_beta     90
_cell_angle_gamma    90

_symmetry_Int_Tables_number  113
_chemical_formula_structural  Nd2Be2SiO7
_chemical_formula_sum  Nd4Be4Si2O4
_cell_volume  276.230235233036
_cell_formula_units_Z  2
loop_
  _symmetry_equiv_pos_site_id
 _symmetry_equiv_pos_as_xyz
 1  'x, y, z'
loop_
 _atom_site_type_symbol
 _atom_site_label
 _atom_site_symmetry_multiplicity
 _atom_site_fract_x
 _atom_site_fract_y
 _atom_site_fract_z
 _atom_site_fract_occupancy
 Be  Be1  1  0.13547  0.63547  0.96297  1
 Be  Be2  1  0.63547  0.86453  0.03703  1
 Be  Be3  1  0.86453  0.36453  0.96297  1
 Be  Be4  1  0.36453  0.13547  0.03703  1
 Nd  Nd1  1  0.83961  0.66039  0.49427  1
 Nd  Nd2  1  0.33961  0.83961  0.50573  1
 Nd  Nd3  1  0.66039  0.16039  0.50573  1
 Nd  Nd4  1  0.16039  0.33961  0.49427  1
 O  O1  1  0.85906  0.35906  0.28759  1
 O  O2  1  0.33555  0.57694  0.80888  1
 O  O3  1  0.14094  0.64094  0.28759  1
 O  O4  1  0.64094  0.85906  0.71241  1
 O  O5  1  0.50000  0.00000  0.16980  1
 O  O6  1  0.35906  0.14094  0.71241  1
 O  O7  1  0.07694  0.83555  0.80888  1
 O  O8  1  0.57694  0.66445  0.19112  1
 O  O9  1  0.83555  0.92306  0.19112  1
 O  O10  1  0.92306  0.16445  0.80888  1
 O  O11  1  0.00000  0.50000  0.83020  1
 O  O12  1  0.42306  0.33555  0.19112  1
 O  O13  1  0.16445  0.07694  0.19112  1
 O  O14  1  0.66445  0.42306  0.80888  1
 Si  Si1  1  0.00000  0.00000  0.00000  1
 Si  Si2  1  0.50000  0.50000  0.00000  1
