CIF file written using JARVIS-Tools package.
data_B6H10N
_symmetry_space_group_name_H-M  'Fm-3'
_cell_length_a       7.63388
_cell_length_b       7.63387
_cell_length_c       7.63388
_cell_angle_alpha    60
_cell_angle_beta     60
_cell_angle_gamma    60

_symmetry_Int_Tables_number  202
_chemical_formula_structural  B6H10N
_chemical_formula_sum  B2H20N2
_cell_volume  314.5722167515502
_cell_formula_units_Z  2
loop_
  _symmetry_equiv_pos_site_id
 _symmetry_equiv_pos_as_xyz
 1  'x, y, z'
loop_
 _atom_site_type_symbol
 _atom_site_label
 _atom_site_symmetry_multiplicity
 _atom_site_fract_x
 _atom_site_fract_y
 _atom_site_fract_z
 _atom_site_fract_occupancy
 B  B1  1  0.21573  0.78427  0.94824  1
 B  B2  1  0.94824  0.21573  0.78427  1
 B  B3  1  0.05176  0.78427  0.21573  1
 B  B4  1  0.21573  0.05176  0.78427  1
 B  B5  1  0.05176  0.94824  0.78427  1
 B  B6  1  0.78427  0.94824  0.21573  1
 B  B7  1  0.78427  0.05176  0.94824  1
 B  B8  1  0.78427  0.21573  0.05176  1
 B  B9  1  0.94824  0.05176  0.21573  1
 B  B10  1  0.05176  0.21573  0.94824  1
 B  B11  1  0.21573  0.94824  0.05176  1
 B  B12  1  0.94824  0.78427  0.05176  1
 H  H1  1  0.36865  0.09050  0.63135  1
 H  H2  1  0.36865  0.63135  0.90950  1
 H  H3  1  0.36865  0.90950  0.09050  1
 H  H4  1  0.09050  0.36865  0.90950  1
 H  H5  1  0.80537  0.58390  0.80537  1
 H  H6  1  0.63135  0.36865  0.09050  1
 H  H7  1  0.90950  0.63135  0.09050  1
 H  H8  1  0.63135  0.90950  0.36865  1
 H  H9  1  0.09050  0.90950  0.63135  1
 H  H10  1  0.80537  0.80537  0.58390  1
 H  H11  1  0.90950  0.09050  0.36865  1
 H  H12  1  0.19463  0.19463  0.41610  1
 H  H13  1  0.58390  0.80537  0.80537  1
 H  H14  1  0.63135  0.09050  0.90950  1
 H  H15  1  0.80537  0.80537  0.80537  1
 H  H16  1  0.19463  0.41610  0.19463  1
 H  H17  1  0.41610  0.19463  0.19463  1
 H  H18  1  0.19463  0.19463  0.19463  1
 H  H19  1  0.90950  0.36865  0.63135  1
 H  H20  1  0.09050  0.63135  0.36865  1
 N  N1  1  0.75000  0.75000  0.75000  1
 N  N2  1  0.25000  0.25000  0.25000  1
