CIF file written using JARVIS-Tools package.
data_LiV2F6
_symmetry_space_group_name_H-M  'P4_2/mnm'
_cell_length_a       4.68098
_cell_length_b       4.68098
_cell_length_c       9.31931
_cell_angle_alpha    90
_cell_angle_beta     90
_cell_angle_gamma    90

_symmetry_Int_Tables_number  136
_chemical_formula_structural  LiV2F6
_chemical_formula_sum  Li2V4F2
_cell_volume  204.2004596252964
_cell_formula_units_Z  2
loop_
  _symmetry_equiv_pos_site_id
 _symmetry_equiv_pos_as_xyz
 1  'x, y, z'
loop_
 _atom_site_type_symbol
 _atom_site_label
 _atom_site_symmetry_multiplicity
 _atom_site_fract_x
 _atom_site_fract_y
 _atom_site_fract_z
 _atom_site_fract_occupancy
 F  F1  1  0.19868  0.80132  0.83195  1
 F  F2  1  0.69868  0.69868  0.66805  1
 F  F3  1  0.30132  0.30132  0.66805  1
 F  F4  1  0.19868  0.80132  0.16805  1
 F  F5  1  0.19572  0.80428  0.50000  1
 F  F6  1  0.30428  0.30428  0.00000  1
 F  F7  1  0.69572  0.69572  0.00000  1
 F  F8  1  0.30132  0.30132  0.33195  1
 F  F9  1  0.69868  0.69868  0.33195  1
 F  F10  1  0.80132  0.19868  0.83195  1
 F  F11  1  0.80132  0.19868  0.16805  1
 F  F12  1  0.80428  0.19572  0.50000  1
 Li  Li1  1  0.00000  0.00000  0.00000  1
 Li  Li2  1  0.50000  0.50000  0.50000  1
 V  V1  1  0.00000  0.00000  0.33221  1
 V  V2  1  0.50000  0.50000  0.83221  1
 V  V3  1  0.50000  0.50000  0.16779  1
 V  V4  1  0.00000  0.00000  0.66779  1
