CIF file written using JARVIS-Tools package.
data_ThGe2
_symmetry_space_group_name_H-M  'Cmmm'
_cell_length_a       4.06802
_cell_length_b       4.19196
_cell_length_c       8.59628
_cell_angle_alpha    90
_cell_angle_beta     103.687
_cell_angle_gamma    90

_symmetry_Int_Tables_number  65
_chemical_formula_structural  ThGe2
_chemical_formula_sum  Th2Ge4
_cell_volume  142.42972490978434
_cell_formula_units_Z  2
loop_
  _symmetry_equiv_pos_site_id
 _symmetry_equiv_pos_as_xyz
 1  'x, y, z'
loop_
 _atom_site_type_symbol
 _atom_site_label
 _atom_site_symmetry_multiplicity
 _atom_site_fract_x
 _atom_site_fract_y
 _atom_site_fract_z
 _atom_site_fract_occupancy
 Ge  Ge1  1  0.29936  0.50000  0.59872  1
 Ge  Ge2  1  0.70064  0.50000  0.40128  1
 Ge  Ge3  1  0.50000  0.00000  0.00000  1
 Ge  Ge4  1  0.00000  0.50000  0.00000  1
 Th  Th1  1  0.13836  0.00000  0.27672  1
 Th  Th2  1  0.86164  0.00000  0.72328  1
