CIF file written using JARVIS-Tools package.
data_KHoBeF6
_symmetry_space_group_name_H-M  'P2_1/m'
_cell_length_a       6.31698
_cell_length_b       5.84675
_cell_length_c       6.94211
_cell_angle_alpha    90
_cell_angle_beta     112.856
_cell_angle_gamma    90

_symmetry_Int_Tables_number  11
_chemical_formula_structural  KHoBeF6
_chemical_formula_sum  K2Ho2Be2F2
_cell_volume  236.26773851782977
_cell_formula_units_Z  2
loop_
  _symmetry_equiv_pos_site_id
 _symmetry_equiv_pos_as_xyz
 1  'x, y, z'
loop_
 _atom_site_type_symbol
 _atom_site_label
 _atom_site_symmetry_multiplicity
 _atom_site_fract_x
 _atom_site_fract_y
 _atom_site_fract_z
 _atom_site_fract_occupancy
 Be  Be1  1  0.26442  0.25000  0.53438  1
 Be  Be2  1  0.73558  0.75000  0.46562  1
 F  F1  1  0.95762  0.75000  0.42227  1
 F  F2  1  0.48425  0.25000  0.74462  1
 F  F3  1  0.72691  0.53569  0.59822  1
 F  F4  1  0.04238  0.25000  0.57773  1
 F  F5  1  0.82063  0.50187  0.04093  1
 F  F6  1  0.27309  0.46431  0.40178  1
 F  F7  1  0.17937  0.00187  0.95907  1
 F  F8  1  0.51575  0.75000  0.25538  1
 F  F9  1  0.17937  0.49813  0.95907  1
 F  F10  1  0.72691  0.96431  0.59822  1
 F  F11  1  0.27309  0.03569  0.40178  1
 F  F12  1  0.82063  0.99813  0.04093  1
 Ho  Ho1  1  0.11490  0.75000  0.17869  1
 Ho  Ho2  1  0.88510  0.25000  0.82131  1
 K  K1  1  0.43049  0.75000  0.79286  1
 K  K2  1  0.56951  0.25000  0.20714  1
