CIF file written using JARVIS-Tools package.
data_V3CrO8
_symmetry_space_group_name_H-M  'Cm'
_cell_length_a       6.2789
_cell_length_b       6.2789
_cell_length_c       6.37212
_cell_angle_alpha    73.6571
_cell_angle_beta     106.343
_cell_angle_gamma    145.292

_symmetry_Int_Tables_number  8
_chemical_formula_structural  V3CrO8
_chemical_formula_sum  V3CrO8
_cell_volume  136.68656399065264
_cell_formula_units_Z  1
loop_
  _symmetry_equiv_pos_site_id
 _symmetry_equiv_pos_as_xyz
 1  'x, y, z'
loop_
 _atom_site_type_symbol
 _atom_site_label
 _atom_site_symmetry_multiplicity
 _atom_site_fract_x
 _atom_site_fract_y
 _atom_site_fract_z
 _atom_site_fract_occupancy
 Cr  Cr1  1  0.70309  0.29691  0.30267  1
 O  O1  1  0.13252  0.86748  0.69305  1
 O  O2  1  0.23920  0.76080  0.35152  1
 O  O3  1  0.35860  0.64140  0.98992  1
 O  O4  1  0.44286  0.55714  0.63783  1
 O  O5  1  0.55565  0.44435  0.35932  1
 O  O6  1  0.63949  0.36051  0.00167  1
 O  O7  1  0.76080  0.23920  0.64699  1
 O  O8  1  0.86637  0.13363  0.29583  1
 V  V1  1  0.40170  0.59830  0.29185  1
 V  V2  1  0.60047  0.39953  0.72130  1
 V  V3  1  0.29926  0.70074  0.70806  1
