CIF file written using JARVIS-Tools package.
data_Ba5Hf4S13
_symmetry_space_group_name_H-M  'I4/mmm'
_cell_length_a       4.98357
_cell_length_b       4.98357
_cell_length_c       23.0753
_cell_angle_alpha    96.1993
_cell_angle_beta     96.1993
_cell_angle_gamma    90.0002

_symmetry_Int_Tables_number  139
_chemical_formula_structural  Ba5Hf4S13
_chemical_formula_sum  Ba5Hf4S3
_cell_volume  566.3753301178502
_cell_formula_units_Z  1
loop_
  _symmetry_equiv_pos_site_id
 _symmetry_equiv_pos_as_xyz
 1  'x, y, z'
loop_
 _atom_site_type_symbol
 _atom_site_label
 _atom_site_symmetry_multiplicity
 _atom_site_fract_x
 _atom_site_fract_y
 _atom_site_fract_z
 _atom_site_fract_occupancy
 Ba  Ba1  1  0.71095  0.71095  0.42188  1
 Ba  Ba2  1  0.60713  0.60713  0.21429  1
 Ba  Ba3  1  0.28905  0.28905  0.57812  1
 Ba  Ba4  1  0.50000  0.50000  0.00000  1
 Ba  Ba5  1  0.39287  0.39287  0.78571  1
 Hf  Hf1  1  0.83392  0.83392  0.66786  1
 Hf  Hf2  1  0.05509  0.05509  0.11023  1
 Hf  Hf3  1  0.16608  0.16608  0.33214  1
 Hf  Hf4  1  0.94491  0.94491  0.88977  1
 S  S1  1  0.89032  0.89032  0.78065  1
 S  S2  1  0.00000  0.00000  0.00000  1
 S  S3  1  0.94552  0.44550  0.89097  1
 S  S4  1  0.55450  0.05448  0.10903  1
 S  S5  1  0.10968  0.10968  0.21935  1
 S  S6  1  0.44550  0.94552  0.89097  1
 S  S7  1  0.22067  0.22067  0.44133  1
 S  S8  1  0.33692  0.83692  0.67386  1
 S  S9  1  0.66308  0.16308  0.32614  1
 S  S10  1  0.77933  0.77933  0.55867  1
 S  S11  1  0.16308  0.66308  0.32614  1
 S  S12  1  0.83692  0.33692  0.67386  1
 S  S13  1  0.05448  0.55450  0.10903  1
