CIF file written using JARVIS-Tools package.
data_MgB4Os3
_symmetry_space_group_name_H-M  'Cmcm'
_cell_length_a       2.93187
_cell_length_b       6.13893
_cell_length_c       9.84457
_cell_angle_alpha    90
_cell_angle_beta     90
_cell_angle_gamma    103.815

_symmetry_Int_Tables_number  63
_chemical_formula_structural  MgB4Os3
_chemical_formula_sum  Mg2B8Os6
_cell_volume  172.06199914825996
_cell_formula_units_Z  2
loop_
  _symmetry_equiv_pos_site_id
 _symmetry_equiv_pos_as_xyz
 1  'x, y, z'
loop_
 _atom_site_type_symbol
 _atom_site_label
 _atom_site_symmetry_multiplicity
 _atom_site_fract_x
 _atom_site_fract_y
 _atom_site_fract_z
 _atom_site_fract_occupancy
 B  B1  1  0.62281  0.24561  0.25000  1
 B  B2  1  0.37719  0.75439  0.75000  1
 B  B3  1  0.34431  0.68863  0.25000  1
 B  B4  1  0.65569  0.31137  0.75000  1
 B  B5  1  0.16007  0.32014  0.89011  1
 B  B6  1  0.83993  0.67986  0.39011  1
 B  B7  1  0.83993  0.67986  0.10989  1
 B  B8  1  0.16007  0.32014  0.60989  1
 Mg  Mg1  1  0.50000  0.00000  0.00000  1
 Mg  Mg2  1  0.50000  0.00000  0.50000  1
 Os  Os1  1  0.19802  0.39604  0.10696  1
 Os  Os2  1  0.01803  0.03606  0.75000  1
 Os  Os3  1  0.98197  0.96394  0.25000  1
 Os  Os4  1  0.80198  0.60396  0.89304  1
 Os  Os5  1  0.80198  0.60396  0.60696  1
 Os  Os6  1  0.19802  0.39604  0.39304  1
