CIF file written using JARVIS-Tools package.
data_K3BS3
_symmetry_space_group_name_H-M  'P2_1/c'
_cell_length_a       9.99743
_cell_length_b       6.23005
_cell_length_c       12.5881
_cell_angle_alpha    90
_cell_angle_beta     114.382
_cell_angle_gamma    90

_symmetry_Int_Tables_number  14
_chemical_formula_structural  K3BS3
_chemical_formula_sum  K2B4S2
_cell_volume  714.1158023011845
_cell_formula_units_Z  4
loop_
  _symmetry_equiv_pos_site_id
 _symmetry_equiv_pos_as_xyz
 1  'x, y, z'
loop_
 _atom_site_type_symbol
 _atom_site_label
 _atom_site_symmetry_multiplicity
 _atom_site_fract_x
 _atom_site_fract_y
 _atom_site_fract_z
 _atom_site_fract_occupancy
 B  B1  1  0.73139  0.14397  0.24174  1
 B  B2  1  0.26861  0.85603  0.75826  1
 B  B3  1  0.73139  0.35603  0.74174  1
 B  B4  1  0.26861  0.64397  0.25826  1
 K  K1  1  0.10877  0.95765  0.35017  1
 K  K2  1  0.89123  0.45765  0.14983  1
 K  K3  1  0.89123  0.04235  0.64983  1
 K  K4  1  0.10877  0.54235  0.85017  1
 K  K5  1  0.45906  0.71076  0.58762  1
 K  K6  1  0.22068  0.18194  0.10527  1
 K  K7  1  0.22068  0.31806  0.60527  1
 K  K8  1  0.77932  0.81806  0.89473  1
 K  K9  1  0.45906  0.78924  0.08762  1
 K  K10  1  0.54094  0.28924  0.41238  1
 K  K11  1  0.54094  0.21076  0.91238  1
 K  K12  1  0.77932  0.68194  0.39473  1
 S  S1  1  0.78461  0.93986  0.16004  1
 S  S2  1  0.21539  0.43986  0.33996  1
 S  S3  1  0.14949  0.68904  0.10374  1
 S  S4  1  0.85051  0.18904  0.39626  1
 S  S5  1  0.85051  0.31096  0.89626  1
 S  S6  1  0.56980  0.31309  0.16755  1
 S  S7  1  0.43020  0.81309  0.33245  1
 S  S8  1  0.56980  0.18691  0.66755  1
 S  S9  1  0.43020  0.68691  0.83245  1
 S  S10  1  0.78461  0.56014  0.66004  1
 S  S11  1  0.14949  0.81096  0.60374  1
 S  S12  1  0.21539  0.06014  0.83996  1
