CIF file written using JARVIS-Tools package.
data_Li2MnV4NiO12
_symmetry_space_group_name_H-M  'C2'
_cell_length_a       6.63923
_cell_length_b       6.63923
_cell_length_c       5.88067
_cell_angle_alpha    74.6337
_cell_angle_beta     105.366
_cell_angle_gamma    100.638

_symmetry_Int_Tables_number  5
_chemical_formula_structural  Li2MnV4NiO12
_chemical_formula_sum  Li2MnV4NiO2
_cell_volume  239.18363002573523
_cell_formula_units_Z  1
loop_
  _symmetry_equiv_pos_site_id
 _symmetry_equiv_pos_as_xyz
 1  'x, y, z'
loop_
 _atom_site_type_symbol
 _atom_site_label
 _atom_site_symmetry_multiplicity
 _atom_site_fract_x
 _atom_site_fract_y
 _atom_site_fract_z
 _atom_site_fract_occupancy
 Li  Li1  1  0.27680  0.27680  0.25000  1
 Li  Li2  1  0.71695  0.71695  0.75000  1
 Mn  Mn1  1  0.07375  0.07375  0.75000  1
 Ni  Ni1  1  0.92403  0.92403  0.25000  1
 O  O1  1  0.00972  0.78166  0.67805  1
 O  O2  1  0.91466  0.63984  0.22210  1
 O  O3  1  0.21068  0.99194  0.16404  1
 O  O4  1  0.39348  0.68430  0.58846  1
 O  O5  1  0.08133  0.36404  0.77385  1
 O  O6  1  0.32435  0.60509  0.08824  1
 O  O7  1  0.68430  0.39348  0.91154  1
 O  O8  1  0.60509  0.32435  0.41176  1
 O  O9  1  0.36404  0.08133  0.72615  1
 O  O10  1  0.78166  0.00972  0.82195  1
 O  O11  1  0.63984  0.91466  0.27790  1
 O  O12  1  0.99194  0.21068  0.33596  1
 V  V1  1  0.80474  0.38836  0.22998  1
 V  V2  1  0.61324  0.20103  0.72513  1
 V  V3  1  0.38836  0.80474  0.27002  1
 V  V4  1  0.20103  0.61324  0.77487  1
