CIF file written using JARVIS-Tools package.
data_Ta
_symmetry_space_group_name_H-M  'P4_2/mnm'
_cell_length_a       5.3424
_cell_length_b       10.2052
_cell_length_c       10.2052
_cell_angle_alpha    90
_cell_angle_beta     90
_cell_angle_gamma    90

_symmetry_Int_Tables_number  136
_chemical_formula_structural  Ta
_chemical_formula_sum  Ta30
_cell_volume  556.3875448149078
_cell_formula_units_Z  30
loop_
  _symmetry_equiv_pos_site_id
 _symmetry_equiv_pos_as_xyz
 1  'x, y, z'
loop_
 _atom_site_type_symbol
 _atom_site_label
 _atom_site_symmetry_multiplicity
 _atom_site_fract_x
 _atom_site_fract_y
 _atom_site_fract_z
 _atom_site_fract_occupancy
 Ta  Ta1  1  0.24986  0.50000  0.00000  1
 Ta  Ta2  1  0.75014  0.00000  0.50000  1
 Ta  Ta3  1  0.24988  0.76172  0.06694  1
 Ta  Ta4  1  0.75012  0.06694  0.23828  1
 Ta  Ta5  1  0.75012  0.93306  0.76172  1
 Ta  Ta6  1  0.24988  0.23828  0.93306  1
 Ta  Ta7  1  0.75012  0.26172  0.43306  1
 Ta  Ta8  1  0.75012  0.73828  0.56694  1
 Ta  Ta9  1  0.24988  0.43306  0.73828  1
 Ta  Ta10  1  0.24988  0.56694  0.26172  1
 Ta  Ta11  1  0.25012  0.03505  0.12938  1
 Ta  Ta12  1  0.74988  0.12938  0.96495  1
 Ta  Ta13  1  0.74988  0.87062  0.03505  1
 Ta  Ta14  1  0.25012  0.96495  0.87062  1
 Ta  Ta15  1  0.74988  0.53505  0.37062  1
 Ta  Ta16  1  0.74988  0.46495  0.62938  1
 Ta  Ta17  1  0.25012  0.37062  0.46495  1
 Ta  Ta18  1  0.25012  0.62938  0.53505  1
 Ta  Ta19  1  0.74981  0.60466  0.10466  1
 Ta  Ta20  1  0.25019  0.10466  0.39534  1
 Ta  Ta21  1  0.25019  0.89534  0.60466  1
 Ta  Ta22  1  0.74981  0.39534  0.89534  1
 Ta  Ta23  1  0.00094  0.81873  0.31873  1
 Ta  Ta24  1  0.99906  0.31873  0.18127  1
 Ta  Ta25  1  0.99906  0.68127  0.81873  1
 Ta  Ta26  1  0.00094  0.18127  0.68127  1
 Ta  Ta27  1  0.50086  0.31872  0.18128  1
 Ta  Ta28  1  0.49914  0.18128  0.68128  1
 Ta  Ta29  1  0.49914  0.81872  0.31872  1
 Ta  Ta30  1  0.50086  0.68128  0.81872  1
