CIF file written using JARVIS-Tools package.
data_Ho7Co6Sn23
_symmetry_space_group_name_H-M  'P-3m1'
_cell_length_a       9.70421
_cell_length_b       9.70421
_cell_length_c       9.91033
_cell_angle_alpha    90
_cell_angle_beta     90
_cell_angle_gamma    120

_symmetry_Int_Tables_number  164
_chemical_formula_structural  Ho7Co6Sn23
_chemical_formula_sum  Ho7Co6Sn23
_cell_volume  808.2382073946148
_cell_formula_units_Z  1
loop_
  _symmetry_equiv_pos_site_id
 _symmetry_equiv_pos_as_xyz
 1  'x, y, z'
loop_
 _atom_site_type_symbol
 _atom_site_label
 _atom_site_symmetry_multiplicity
 _atom_site_fract_x
 _atom_site_fract_y
 _atom_site_fract_z
 _atom_site_fract_occupancy
 Co  Co1  1  0.16831  0.33663  0.19796  1
 Co  Co2  1  0.66337  0.83169  0.19796  1
 Co  Co3  1  0.16831  0.83169  0.19796  1
 Co  Co4  1  0.83169  0.16831  0.80204  1
 Co  Co5  1  0.33663  0.16831  0.80204  1
 Co  Co6  1  0.83169  0.66337  0.80204  1
 Ho  Ho1  1  0.00000  0.00000  0.00000  1
 Ho  Ho2  1  0.47945  0.52055  0.69265  1
 Ho  Ho3  1  0.04110  0.52055  0.69265  1
 Ho  Ho4  1  0.95890  0.47945  0.30735  1
 Ho  Ho5  1  0.52055  0.47945  0.30735  1
 Ho  Ho6  1  0.52055  0.04110  0.30735  1
 Ho  Ho7  1  0.47945  0.95890  0.69265  1
 Sn  Sn1  1  0.43818  0.21909  0.54648  1
 Sn  Sn2  1  0.66667  0.33333  0.82144  1
 Sn  Sn3  1  0.66667  0.33333  0.12002  1
 Sn  Sn4  1  0.33333  0.66667  0.87998  1
 Sn  Sn5  1  0.34651  -0.00000  0.00000  1
 Sn  Sn6  1  0.00000  0.00000  0.50000  1
 Sn  Sn7  1  0.65349  0.65349  0.00000  1
 Sn  Sn8  1  0.65349  0.00000  0.00000  1
 Sn  Sn9  1  0.33333  0.66667  0.17856  1
 Sn  Sn10  1  0.21909  0.43818  0.45352  1
 Sn  Sn11  1  0.76456  0.88228  0.72631  1
 Sn  Sn12  1  0.56182  0.78091  0.45352  1
 Sn  Sn13  1  0.78091  0.21909  0.54648  1
 Sn  Sn14  1  0.78091  0.56182  0.54648  1
 Sn  Sn15  1  0.34651  0.34651  0.00000  1
 Sn  Sn16  1  0.11772  0.88228  0.72631  1
 Sn  Sn17  1  0.21909  0.78091  0.45352  1
 Sn  Sn18  1  0.23544  0.11772  0.27369  1
 Sn  Sn19  1  0.88228  0.11772  0.27369  1
 Sn  Sn20  1  0.88228  0.76456  0.27369  1
 Sn  Sn21  1  0.11772  0.23544  0.72631  1
 Sn  Sn22  1  -0.00000  0.34651  0.00000  1
 Sn  Sn23  1  0.00000  0.65349  0.00000  1
