CIF file written using JARVIS-Tools package.
data_Sm2Ge5Ir3
_symmetry_space_group_name_H-M  'Ibam'
_cell_length_a       8.43388
_cell_length_b       8.43388
_cell_length_c       8.43388
_cell_angle_alpha    104.932
_cell_angle_beta     90.3098
_cell_angle_gamma    137.47

_symmetry_Int_Tables_number  72
_chemical_formula_structural  Sm2Ge5Ir3
_chemical_formula_sum  Sm4Ge0Ir6
_cell_volume  373.90177372071804
_cell_formula_units_Z  2
loop_
  _symmetry_equiv_pos_site_id
 _symmetry_equiv_pos_as_xyz
 1  'x, y, z'
loop_
 _atom_site_type_symbol
 _atom_site_label
 _atom_site_symmetry_multiplicity
 _atom_site_fract_x
 _atom_site_fract_y
 _atom_site_fract_z
 _atom_site_fract_occupancy
 Ge  Ge1  1  0.52563  0.75000  0.77563  1
 Ge  Ge2  1  0.40160  0.33876  0.74036  1
 Ge  Ge3  1  0.59840  0.66124  0.25964  1
 Ge  Ge4  1  0.09840  0.83876  0.93716  1
 Ge  Ge5  1  0.90160  0.16124  0.06284  1
 Ge  Ge6  1  0.47437  0.25000  0.22437  1
 Ge  Ge7  1  0.97437  0.75000  0.22437  1
 Ge  Ge8  1  0.25000  0.75000  0.50000  1
 Ge  Ge9  1  0.75000  0.25000  0.50000  1
 Ge  Ge10  1  0.02563  0.25000  0.77563  1
 Ir  Ir1  1  0.75000  0.75000  -0.00000  1
 Ir  Ir2  1  0.35826  0.11027  0.46854  1
 Ir  Ir3  1  0.64174  0.88972  0.53146  1
 Ir  Ir4  1  0.85826  0.38972  0.24799  1
 Ir  Ir5  1  0.14174  0.61027  0.75201  1
 Ir  Ir6  1  0.25000  0.25000  0.00000  1
 Sm  Sm1  1  0.13350  0.27244  0.40594  1
 Sm  Sm2  1  0.86650  0.72756  0.59406  1
 Sm  Sm3  1  0.36650  0.77244  0.13893  1
 Sm  Sm4  1  0.63350  0.22756  0.86107  1
