CIF file written using JARVIS-Tools package.
data_Li2CuAs
_symmetry_space_group_name_H-M  'P6_3/mmc'
_cell_length_a       4.20291
_cell_length_b       4.20291
_cell_length_c       7.87086
_cell_angle_alpha    90
_cell_angle_beta     90
_cell_angle_gamma    120

_symmetry_Int_Tables_number  194
_chemical_formula_structural  Li2CuAs
_chemical_formula_sum  Li4Cu2As2
_cell_volume  120.40737270945941
_cell_formula_units_Z  2
loop_
  _symmetry_equiv_pos_site_id
 _symmetry_equiv_pos_as_xyz
 1  'x, y, z'
loop_
 _atom_site_type_symbol
 _atom_site_label
 _atom_site_symmetry_multiplicity
 _atom_site_fract_x
 _atom_site_fract_y
 _atom_site_fract_z
 _atom_site_fract_occupancy
 As  As1  1  0.33333  0.66667  0.25000  1
 As  As2  1  0.66667  0.33333  0.75000  1
 Cu  Cu1  1  0.00000  0.00000  0.75000  1
 Cu  Cu2  1  0.00000  0.00000  0.25000  1
 Li  Li1  1  0.66667  0.33333  0.41524  1
 Li  Li2  1  0.33333  0.66667  0.91524  1
 Li  Li3  1  0.66667  0.33333  0.08476  1
 Li  Li4  1  0.33333  0.66667  0.58476  1
