CIF file written using JARVIS-Tools package.
data_CoAsSe
_symmetry_space_group_name_H-M  'Pbca'
_cell_length_a       5.78902
_cell_length_b       5.87201
_cell_length_c       11.5545
_cell_angle_alpha    90
_cell_angle_beta     90
_cell_angle_gamma    90

_symmetry_Int_Tables_number  61
_chemical_formula_structural  CoAsSe
_chemical_formula_sum  Co8As8Se8
_cell_volume  392.7751098146409
_cell_formula_units_Z  8
loop_
  _symmetry_equiv_pos_site_id
 _symmetry_equiv_pos_as_xyz
 1  'x, y, z'
loop_
 _atom_site_type_symbol
 _atom_site_label
 _atom_site_symmetry_multiplicity
 _atom_site_fract_x
 _atom_site_fract_y
 _atom_site_fract_z
 _atom_site_fract_occupancy
 As  As1  1  0.63360  0.68485  0.56500  1
 As  As2  1  0.36640  0.31515  0.43500  1
 As  As3  1  0.86640  0.18485  0.56500  1
 As  As4  1  0.63360  0.81515  0.06500  1
 As  As5  1  0.13360  0.68485  0.93500  1
 As  As6  1  0.13360  0.81515  0.43500  1
 As  As7  1  0.36640  0.18485  0.93500  1
 As  As8  1  0.86640  0.31515  0.06500  1
 Co  Co1  1  0.00284  0.17535  0.37308  1
 Co  Co2  1  0.00284  0.32465  0.87308  1
 Co  Co3  1  0.49716  0.67535  0.37308  1
 Co  Co4  1  0.99716  0.82465  0.62692  1
 Co  Co5  1  0.49716  0.82465  0.87308  1
 Co  Co6  1  0.99716  0.67535  0.12692  1
 Co  Co7  1  0.50284  0.32465  0.62692  1
 Co  Co8  1  0.50284  0.17535  0.12692  1
 Se  Se1  1  0.12217  0.44227  0.68027  1
 Se  Se2  1  0.12217  0.05773  0.18027  1
 Se  Se3  1  0.62217  0.44227  0.81973  1
 Se  Se4  1  0.87783  0.55773  0.31973  1
 Se  Se5  1  0.37783  0.94227  0.68027  1
 Se  Se6  1  0.87783  0.94227  0.81973  1
 Se  Se7  1  0.37783  0.55773  0.18027  1
 Se  Se8  1  0.62217  0.05773  0.31973  1
