CIF file written using JARVIS-Tools package.
data_SiO2
_symmetry_space_group_name_H-M  'Pm'
_cell_length_a       4.83085
_cell_length_b       5.66994
_cell_length_c       5.01593
_cell_angle_alpha    90
_cell_angle_beta     104.263
_cell_angle_gamma    90

_symmetry_Int_Tables_number  6
_chemical_formula_structural  SiO2
_chemical_formula_sum  Si4O8
_cell_volume  133.1541645267126
_cell_formula_units_Z  4
loop_
  _symmetry_equiv_pos_site_id
 _symmetry_equiv_pos_as_xyz
 1  'x, y, z'
loop_
 _atom_site_type_symbol
 _atom_site_label
 _atom_site_symmetry_multiplicity
 _atom_site_fract_x
 _atom_site_fract_y
 _atom_site_fract_z
 _atom_site_fract_occupancy
 O  O1  1  0.43652  0.74939  0.66027  1
 O  O2  1  0.86992  0.74256  0.09381  1
 O  O3  1  0.35589  0.50000  0.19840  1
 O  O4  1  0.86992  0.25744  0.09381  1
 O  O5  1  0.88846  0.50000  0.66317  1
 O  O6  1  0.43652  0.25061  0.66027  1
 O  O7  1  0.85737  0.00000  0.51294  1
 O  O8  1  0.31240  0.00000  0.22883  1
 Si  Si1  1  0.53016  0.50000  0.53278  1
 Si  Si2  1  0.52585  0.00000  0.53640  1
 Si  Si3  1  0.97259  0.00000  0.22763  1
 Si  Si4  1  0.01650  0.50000  0.00871  1
