CIF file written using JARVIS-Tools package.
data_SrGa2Te4
_symmetry_space_group_name_H-M  'Cccm'
_cell_length_a       6.7632
_cell_length_b       6.7632
_cell_length_c       11.7622
_cell_angle_alpha    90
_cell_angle_beta     90
_cell_angle_gamma    119.751

_symmetry_Int_Tables_number  66
_chemical_formula_structural  SrGa2Te4
_chemical_formula_sum  Sr2Ga4Te8
_cell_volume  467.1009359487313
_cell_formula_units_Z  2
loop_
  _symmetry_equiv_pos_site_id
 _symmetry_equiv_pos_as_xyz
 1  'x, y, z'
loop_
 _atom_site_type_symbol
 _atom_site_label
 _atom_site_symmetry_multiplicity
 _atom_site_fract_x
 _atom_site_fract_y
 _atom_site_fract_z
 _atom_site_fract_occupancy
 Ga  Ga1  1  0.24227  0.76056  0.50000  1
 Ga  Ga2  1  0.75773  0.23944  0.50000  1
 Ga  Ga3  1  0.23944  0.75773  0.00000  1
 Ga  Ga4  1  0.76056  0.24227  0.00000  1
 Sr  Sr1  1  0.50000  0.50000  0.25000  1
 Sr  Sr2  1  0.50000  0.50000  0.75000  1
 Te  Te1  1  0.66187  0.81053  0.00000  1
 Te  Te2  1  0.33813  0.18947  0.00000  1
 Te  Te3  1  0.81053  0.66187  0.50000  1
 Te  Te4  1  0.18947  0.33813  0.50000  1
 Te  Te5  1  0.50000  0.00000  0.67603  1
 Te  Te6  1  -0.00000  0.50000  0.82397  1
 Te  Te7  1  0.50000  0.00000  0.32397  1
 Te  Te8  1  -0.00000  0.50000  0.17603  1
