CIF file written using JARVIS-Tools package.
data_NbPbS2
_symmetry_space_group_name_H-M  'P6_3/mmc'
_cell_length_a       3.39314
_cell_length_b       3.39314
_cell_length_c       17.9556
_cell_angle_alpha    90
_cell_angle_beta     90
_cell_angle_gamma    120

_symmetry_Int_Tables_number  194
_chemical_formula_structural  NbPbS2
_chemical_formula_sum  Nb2Pb2S4
_cell_volume  179.03344516286353
_cell_formula_units_Z  2
loop_
  _symmetry_equiv_pos_site_id
 _symmetry_equiv_pos_as_xyz
 1  'x, y, z'
loop_
 _atom_site_type_symbol
 _atom_site_label
 _atom_site_symmetry_multiplicity
 _atom_site_fract_x
 _atom_site_fract_y
 _atom_site_fract_z
 _atom_site_fract_occupancy
 Nb  Nb1  1  0.66667  0.33333  0.25000  1
 Nb  Nb2  1  0.33333  0.66667  0.75000  1
 Pb  Pb1  1  0.00000  0.00000  0.00000  1
 Pb  Pb2  1  0.00000  0.00000  0.50000  1
 S  S1  1  0.00000  0.00000  0.83668  1
 S  S2  1  0.00000  0.00000  0.33668  1
 S  S3  1  0.00000  0.00000  0.66332  1
 S  S4  1  0.00000  0.00000  0.16332  1
