CIF file written using JARVIS-Tools package.
data_CaSnS3
_symmetry_space_group_name_H-M  'Amm2'
_cell_length_a       5.00714
_cell_length_b       5.00714
_cell_length_c       5.40896
_cell_angle_alpha    90
_cell_angle_beta     90
_cell_angle_gamma    67.9131

_symmetry_Int_Tables_number  38
_chemical_formula_structural  CaSnS3
_chemical_formula_sum  CaSnS3
_cell_volume  125.65856584347539
_cell_formula_units_Z  1
loop_
  _symmetry_equiv_pos_site_id
 _symmetry_equiv_pos_as_xyz
 1  'x, y, z'
loop_
 _atom_site_type_symbol
 _atom_site_label
 _atom_site_symmetry_multiplicity
 _atom_site_fract_x
 _atom_site_fract_y
 _atom_site_fract_z
 _atom_site_fract_occupancy
 Ca  Ca1  1  0.19887  0.80113  0.00000  1
 S  S1  1  0.69970  0.30030  0.00000  1
 S  S2  1  0.08886  0.64373  0.50000  1
 S  S3  1  0.35627  0.91114  0.50000  1
 Sn  Sn1  1  0.67709  0.32291  0.50000  1
