CIF file written using JARVIS-Tools package.
data_MgSn2O4
_symmetry_space_group_name_H-M  'Cmcm'
_cell_length_a       3.16504
_cell_length_b       5.62501
_cell_length_c       10.7479
_cell_angle_alpha    90
_cell_angle_beta     90
_cell_angle_gamma    106.34

_symmetry_Int_Tables_number  63
_chemical_formula_structural  MgSn2O4
_chemical_formula_sum  Mg2Sn4O8
_cell_volume  183.62031572772906
_cell_formula_units_Z  2
loop_
  _symmetry_equiv_pos_site_id
 _symmetry_equiv_pos_as_xyz
 1  'x, y, z'
loop_
 _atom_site_type_symbol
 _atom_site_label
 _atom_site_symmetry_multiplicity
 _atom_site_fract_x
 _atom_site_fract_y
 _atom_site_fract_z
 _atom_site_fract_occupancy
 Mg  Mg1  1  0.38785  0.77570  0.75000  1
 Mg  Mg2  1  0.61215  0.22430  0.25000  1
 O  O1  1  0.22212  0.44425  0.38053  1
 O  O2  1  0.77788  0.55575  0.61947  1
 O  O3  1  0.77788  0.55575  0.88053  1
 O  O4  1  0.22212  0.44425  0.11947  1
 O  O5  1  0.98569  0.97139  0.25000  1
 O  O6  1  0.01431  0.02861  0.75000  1
 O  O7  1  0.50000  0.00000  0.00000  1
 O  O8  1  0.50000  0.00000  0.50000  1
 Sn  Sn1  1  0.86910  0.73820  0.07935  1
 Sn  Sn2  1  0.13090  0.26180  0.92065  1
 Sn  Sn3  1  0.86910  0.73820  0.42065  1
 Sn  Sn4  1  0.13090  0.26180  0.57935  1
