CIF file written using JARVIS-Tools package.
data_ZrBr
_symmetry_space_group_name_H-M  'R-3m'
_cell_length_a       9.62743
_cell_length_b       9.62743
_cell_length_c       9.62744
_cell_angle_alpha    21.1157
_cell_angle_beta     21.1157
_cell_angle_gamma    21.1157

_symmetry_Int_Tables_number  166
_chemical_formula_structural  ZrBr
_chemical_formula_sum  Zr2Br2
_cell_volume  101.42929449859201
_cell_formula_units_Z  2
loop_
  _symmetry_equiv_pos_site_id
 _symmetry_equiv_pos_as_xyz
 1  'x, y, z'
loop_
 _atom_site_type_symbol
 _atom_site_label
 _atom_site_symmetry_multiplicity
 _atom_site_fract_x
 _atom_site_fract_y
 _atom_site_fract_z
 _atom_site_fract_occupancy
 Br  Br1  1  0.39137  0.39137  0.39137  1
 Br  Br2  1  0.60863  0.60863  0.60863  1
 Zr  Zr1  1  0.20820  0.20820  0.20820  1
 Zr  Zr2  1  0.79180  0.79180  0.79180  1
