CIF file written using JARVIS-Tools package.
data_Ba2TlBi2O7
_symmetry_space_group_name_H-M  'Pmm2'
_cell_length_a       3.9309
_cell_length_b       3.91212
_cell_length_c       15.7115
_cell_angle_alpha    90
_cell_angle_beta     90.0005
_cell_angle_gamma    89.9988

_symmetry_Int_Tables_number  25
_chemical_formula_structural  Ba2TlBi2O7
_chemical_formula_sum  Ba2TlBi2O7
_cell_volume  241.61404196083518
_cell_formula_units_Z  1
loop_
  _symmetry_equiv_pos_site_id
 _symmetry_equiv_pos_as_xyz
 1  'x, y, z'
loop_
 _atom_site_type_symbol
 _atom_site_label
 _atom_site_symmetry_multiplicity
 _atom_site_fract_x
 _atom_site_fract_y
 _atom_site_fract_z
 _atom_site_fract_occupancy
 Ba  Ba1  1  0.00459  -0.00000  0.67615  1
 Ba  Ba2  1  0.00459  0.00000  0.32383  1
 Bi  Bi1  1  0.50661  0.50000  0.86587  1
 Bi  Bi2  1  0.50664  0.50000  0.13413  1
 O  O1  1  0.90915  0.00000  0.50000  1
 O  O2  1  0.50713  -0.00000  0.80291  1
 O  O3  1  0.00674  0.50000  0.80361  1
 O  O4  1  0.50714  -0.00000  0.19709  1
 O  O5  1  0.00676  0.50000  0.19639  1
 O  O6  1  0.49585  0.50000  0.63030  1
 O  O7  1  0.49585  0.50000  0.36969  1
 Tl  Tl1  1  0.54896  0.50000  0.49999  1
