CIF file written using JARVIS-Tools package.
data_Sr3CePC3O13
_symmetry_space_group_name_H-M  'R3m'
_cell_length_a       6.6045
_cell_length_b       6.60451
_cell_length_c       6.60451
_cell_angle_alpha    100.06
_cell_angle_beta     100.06
_cell_angle_gamma    100.06

_symmetry_Int_Tables_number  160
_chemical_formula_structural  Sr3CePC3O13
_chemical_formula_sum  Sr3CePC3O3
_cell_volume  272.96844626949405
_cell_formula_units_Z  1
loop_
  _symmetry_equiv_pos_site_id
 _symmetry_equiv_pos_as_xyz
 1  'x, y, z'
loop_
 _atom_site_type_symbol
 _atom_site_label
 _atom_site_symmetry_multiplicity
 _atom_site_fract_x
 _atom_site_fract_y
 _atom_site_fract_z
 _atom_site_fract_occupancy
 C  C1  1  0.06771  0.56695  0.06771  1
 C  C2  1  0.06771  0.06771  0.56695  1
 C  C3  1  0.56695  0.06771  0.06771  1
 Ce  Ce1  1  0.00125  0.00125  0.00125  1
 O  O1  1  0.11142  0.39451  0.11142  1
 O  O2  1  0.16137  0.65901  0.94050  1
 O  O3  1  0.94050  0.16137  0.65901  1
 O  O4  1  0.68417  0.43547  0.43547  1
 O  O5  1  0.43547  0.68417  0.43547  1
 O  O6  1  0.74350  0.74350  0.74350  1
 O  O7  1  0.11142  0.11142  0.39451  1
 O  O8  1  0.94050  0.65901  0.16137  1
 O  O9  1  0.39451  0.11142  0.11142  1
 O  O10  1  0.65901  0.94050  0.16137  1
 O  O11  1  0.65901  0.16137  0.94050  1
 O  O12  1  0.16137  0.94050  0.65901  1
 O  O13  1  0.43547  0.43547  0.68417  1
 P  P1  1  0.57731  0.57731  0.57731  1
 Sr  Sr1  1  0.07735  0.52612  0.52612  1
 Sr  Sr2  1  0.52612  0.07735  0.52612  1
 Sr  Sr3  1  0.52612  0.52612  0.07735  1
