CIF file written using JARVIS-Tools package.
data_KBiF6
_symmetry_space_group_name_H-M  'P4_2/mcm'
_cell_length_a       5.4468
_cell_length_b       5.4468
_cell_length_c       9.65518
_cell_angle_alpha    90
_cell_angle_beta     90
_cell_angle_gamma    90

_symmetry_Int_Tables_number  132
_chemical_formula_structural  KBiF6
_chemical_formula_sum  K2Bi2F2
_cell_volume  286.4456651678609
_cell_formula_units_Z  2
loop_
  _symmetry_equiv_pos_site_id
 _symmetry_equiv_pos_as_xyz
 1  'x, y, z'
loop_
 _atom_site_type_symbol
 _atom_site_label
 _atom_site_symmetry_multiplicity
 _atom_site_fract_x
 _atom_site_fract_y
 _atom_site_fract_z
 _atom_site_fract_occupancy
 Bi  Bi1  1  0.00000  0.00000  0.75000  1
 Bi  Bi2  1  0.00000  0.00000  0.25000  1
 F  F1  1  0.73161  0.73161  0.25000  1
 F  F2  1  0.19118  0.19132  0.60231  1
 F  F3  1  0.19132  0.19118  0.89769  1
 F  F4  1  0.80868  0.19118  0.39769  1
 F  F5  1  0.26839  0.73161  0.75000  1
 F  F6  1  0.80868  0.80882  0.89769  1
 F  F7  1  0.19132  0.80882  0.39769  1
 F  F8  1  0.19118  0.80868  0.10231  1
 F  F9  1  0.26839  0.26839  0.25000  1
 F  F10  1  0.80882  0.80868  0.60231  1
 F  F11  1  0.73161  0.26839  0.75000  1
 F  F12  1  0.80882  0.19132  0.10231  1
 K  K1  1  0.50000  0.50000  0.50000  1
 K  K2  1  0.50000  0.50000  0.00000  1
