CIF file written using JARVIS-Tools package.
data_MnVAgO4
_symmetry_space_group_name_H-M  'Pnma'
_cell_length_a       5.37723
_cell_length_b       6.75747
_cell_length_c       9.57238
_cell_angle_alpha    90
_cell_angle_beta     90
_cell_angle_gamma    90

_symmetry_Int_Tables_number  62
_chemical_formula_structural  MnVAgO4
_chemical_formula_sum  Mn4V4Ag4O6
_cell_volume  347.82666708433726
_cell_formula_units_Z  4
loop_
  _symmetry_equiv_pos_site_id
 _symmetry_equiv_pos_as_xyz
 1  'x, y, z'
loop_
 _atom_site_type_symbol
 _atom_site_label
 _atom_site_symmetry_multiplicity
 _atom_site_fract_x
 _atom_site_fract_y
 _atom_site_fract_z
 _atom_site_fract_occupancy
 Ag  Ag1  1  0.50310  0.75000  0.84725  1
 Ag  Ag2  1  0.99690  0.75000  0.34725  1
 Ag  Ag3  1  0.49690  0.25000  0.15275  1
 Ag  Ag4  1  0.00310  0.25000  0.65275  1
 Mn  Mn1  1  0.50000  0.50000  0.50000  1
 Mn  Mn2  1  0.00000  0.00000  0.00000  1
 Mn  Mn3  1  0.50000  0.00000  0.50000  1
 Mn  Mn4  1  0.00000  0.50000  0.00000  1
 O  O1  1  0.81515  0.95166  0.61352  1
 O  O2  1  0.06256  0.25000  0.13519  1
 O  O3  1  0.56256  0.75000  0.36481  1
 O  O4  1  0.21139  0.75000  0.11669  1
 O  O5  1  0.28861  0.75000  0.61669  1
 O  O6  1  0.78861  0.25000  0.88331  1
 O  O7  1  0.43744  0.25000  0.63519  1
 O  O8  1  0.93744  0.75000  0.86481  1
 O  O9  1  0.81515  0.54834  0.61352  1
 O  O10  1  0.18485  0.45166  0.38648  1
 O  O11  1  0.18485  0.04834  0.38648  1
 O  O12  1  0.68485  0.95166  0.11352  1
 O  O13  1  0.71139  0.25000  0.38331  1
 O  O14  1  0.68485  0.54834  0.11352  1
 O  O15  1  0.31515  0.45166  0.88648  1
 O  O16  1  0.31515  0.04834  0.88648  1
 V  V1  1  0.52180  0.75000  0.17811  1
 V  V2  1  0.02180  0.25000  0.32189  1
 V  V3  1  0.47820  0.25000  0.82189  1
 V  V4  1  0.97820  0.75000  0.67811  1
