CIF file written using JARVIS-Tools package.
data_U2C3
_symmetry_space_group_name_H-M  'I-43d'
_cell_length_a       6.99489
_cell_length_b       6.99489
_cell_length_c       6.99489
_cell_angle_alpha    109.471
_cell_angle_beta     109.471
_cell_angle_gamma    109.471

_symmetry_Int_Tables_number  220
_chemical_formula_structural  U2C3
_chemical_formula_sum  U8C2
_cell_volume  263.4634997208714
_cell_formula_units_Z  4
loop_
  _symmetry_equiv_pos_site_id
 _symmetry_equiv_pos_as_xyz
 1  'x, y, z'
loop_
 _atom_site_type_symbol
 _atom_site_label
 _atom_site_symmetry_multiplicity
 _atom_site_fract_x
 _atom_site_fract_y
 _atom_site_fract_z
 _atom_site_fract_occupancy
 C  C1  1  0.03622  0.75000  0.78622  1
 C  C2  1  0.75000  0.96378  0.21378  1
 C  C3  1  0.28622  0.25000  0.53622  1
 C  C4  1  0.53622  0.28622  0.25000  1
 C  C5  1  0.21378  0.75000  0.96378  1
 C  C6  1  0.96378  0.21378  0.75000  1
 C  C7  1  0.25000  0.71378  0.46378  1
 C  C8  1  0.71378  0.46378  0.25000  1
 C  C9  1  0.75000  0.78622  0.03622  1
 C  C10  1  0.46378  0.25000  0.71378  1
 C  C11  1  0.78622  0.03622  0.75000  1
 C  C12  1  0.25000  0.53622  0.28622  1
 U  U1  1  0.90221  0.50000  -0.00000  1
 U  U2  1  0.59779  0.59779  0.59779  1
 U  U3  1  0.40221  0.50000  -0.00000  1
 U  U4  1  0.50000  -0.00000  0.40221  1
 U  U5  1  0.00000  0.40221  0.50000  1
 U  U6  1  0.50000  -0.00000  0.90221  1
 U  U7  1  0.00000  0.90221  0.50000  1
 U  U8  1  0.09779  0.09779  0.09779  1
