CIF file written using JARVIS-Tools package.
data_Pr2AlCo2
_symmetry_space_group_name_H-M  'Immm'
_cell_length_a       4.03925
_cell_length_b       5.58282
_cell_length_c       5.65511
_cell_angle_alpha    119.578
_cell_angle_beta     110.924
_cell_angle_gamma    89.9999

_symmetry_Int_Tables_number  71
_chemical_formula_structural  Pr2AlCo2
_chemical_formula_sum  Pr2AlCo2
_cell_volume  101.12366020611505
_cell_formula_units_Z  1
loop_
  _symmetry_equiv_pos_site_id
 _symmetry_equiv_pos_as_xyz
 1  'x, y, z'
loop_
 _atom_site_type_symbol
 _atom_site_label
 _atom_site_symmetry_multiplicity
 _atom_site_fract_x
 _atom_site_fract_y
 _atom_site_fract_z
 _atom_site_fract_occupancy
 Al  Al1  1  0.00000  0.00000  0.00000  1
 Co  Co1  1  0.50000  0.27853  0.00000  1
 Co  Co2  1  0.50000  0.72147  -0.00000  1
 Pr  Pr1  1  0.20092  0.70092  0.40185  1
 Pr  Pr2  1  0.79908  0.29908  0.59815  1
