CIF file written using JARVIS-Tools package.
data_LiAsO3
_symmetry_space_group_name_H-M  'C2/c'
_cell_length_a       5.27486
_cell_length_b       6.91949
_cell_length_c       6.91948
_cell_angle_alpha    85.101
_cell_angle_beta     75.4676
_cell_angle_gamma    75.4676

_symmetry_Int_Tables_number  15
_chemical_formula_structural  LiAsO3
_chemical_formula_sum  Li4As4O2
_cell_volume  236.5864611618173
_cell_formula_units_Z  4
loop_
  _symmetry_equiv_pos_site_id
 _symmetry_equiv_pos_as_xyz
 1  'x, y, z'
loop_
 _atom_site_type_symbol
 _atom_site_label
 _atom_site_symmetry_multiplicity
 _atom_site_fract_x
 _atom_site_fract_y
 _atom_site_fract_z
 _atom_site_fract_occupancy
 As  As1  1  0.26183  0.61062  0.80391  1
 As  As2  1  0.73817  0.38938  0.19609  1
 As  As3  1  0.23817  0.19609  0.38938  1
 As  As4  1  0.76183  0.80391  0.61062  1
 Li  Li1  1  0.75000  0.21313  0.78687  1
 Li  Li2  1  0.75000  0.89614  0.10386  1
 Li  Li3  1  0.25000  0.78687  0.21313  1
 Li  Li4  1  0.25000  0.10386  0.89614  1
 O  O1  1  0.51105  0.67612  0.59643  1
 O  O2  1  0.63896  0.96532  0.79781  1
 O  O3  1  0.87829  0.87766  0.37621  1
 O  O4  1  0.48895  0.32388  0.40357  1
 O  O5  1  0.36104  0.03468  0.20219  1
 O  O6  1  0.37829  0.37621  0.87766  1
 O  O7  1  0.86104  0.20219  0.03468  1
 O  O8  1  0.98895  0.40357  0.32388  1
 O  O9  1  0.13896  0.79781  0.96532  1
 O  O10  1  0.01105  0.59643  0.67612  1
 O  O11  1  0.12171  0.12234  0.62379  1
 O  O12  1  0.62171  0.62379  0.12234  1
