CIF file written using JARVIS-Tools package.
data_NdB2C2
_symmetry_space_group_name_H-M  'P4/mbm'
_cell_length_a       5.38927
_cell_length_b       5.38927
_cell_length_c       3.83504
_cell_angle_alpha    90
_cell_angle_beta     90
_cell_angle_gamma    90

_symmetry_Int_Tables_number  127
_chemical_formula_structural  NdB2C2
_chemical_formula_sum  Nd2B4C4
_cell_volume  111.38578919304176
_cell_formula_units_Z  2
loop_
  _symmetry_equiv_pos_site_id
 _symmetry_equiv_pos_as_xyz
 1  'x, y, z'
loop_
 _atom_site_type_symbol
 _atom_site_label
 _atom_site_symmetry_multiplicity
 _atom_site_fract_x
 _atom_site_fract_y
 _atom_site_fract_z
 _atom_site_fract_occupancy
 B  B1  1  0.13830  0.63830  0.50000  1
 B  B2  1  0.63830  0.86170  0.50000  1
 B  B3  1  0.86170  0.36170  0.50000  1
 B  B4  1  0.36170  0.13830  0.50000  1
 C  C1  1  0.83942  0.66058  0.50000  1
 C  C2  1  0.33942  0.83942  0.50000  1
 C  C3  1  0.66058  0.16058  0.50000  1
 C  C4  1  0.16058  0.33942  0.50000  1
 Nd  Nd1  1  0.50000  0.50000  0.00000  1
 Nd  Nd2  1  0.00000  0.00000  0.00000  1
