CIF file written using JARVIS-Tools package.
data_Li5GeP3
_symmetry_space_group_name_H-M  'Cc'
_cell_length_a       5.93829
_cell_length_b       7.13645
_cell_length_c       8.58158
_cell_angle_alpha    107.279
_cell_angle_beta     89.9995
_cell_angle_gamma    114.585

_symmetry_Int_Tables_number  9
_chemical_formula_structural  Li5GeP3
_chemical_formula_sum  Li0Ge2P6
_cell_volume  312.56507265818465
_cell_formula_units_Z  2
loop_
  _symmetry_equiv_pos_site_id
 _symmetry_equiv_pos_as_xyz
 1  'x, y, z'
loop_
 _atom_site_type_symbol
 _atom_site_label
 _atom_site_symmetry_multiplicity
 _atom_site_fract_x
 _atom_site_fract_y
 _atom_site_fract_z
 _atom_site_fract_occupancy
 Ge  Ge1  1  0.97756  0.33486  0.12975  1
 Ge  Ge2  1  0.35447  0.33486  0.62975  1
 Li  Li1  1  0.10157  0.68482  0.42437  1
 Li  Li2  1  0.57504  0.64804  0.40943  1
 Li  Li3  1  0.74652  0.00758  0.74921  1
 Li  Li4  1  0.75697  -0.00778  0.25683  1
 Li  Li5  1  0.07018  0.64805  0.90943  1
 Li  Li6  1  0.44571  0.33669  0.06579  1
 Li  Li7  1  0.58042  0.68482  0.92437  1
 Li  Li8  1  0.23240  0.99221  0.75683  1
 Li  Li9  1  0.25822  0.00757  0.24920  1
 Li  Li10  1  0.88817  0.33669  0.56579  1
 P  P1  1  0.68832  0.33345  0.30479  1
 P  P2  1  0.31745  0.65797  0.16008  1
 P  P3  1  0.99617  0.01252  0.00499  1
 P  P4  1  0.33769  0.65796  0.66008  1
 P  P5  1  0.01354  0.01253  0.50500  1
 P  P6  1  0.64230  0.33346  0.80478  1
