CIF file written using JARVIS-Tools package.
data_Sc3As2
_symmetry_space_group_name_H-M  'Pnma'
_cell_length_a       3.82925
_cell_length_b       10.2879
_cell_length_c       10.4352
_cell_angle_alpha    90
_cell_angle_beta     90
_cell_angle_gamma    90

_symmetry_Int_Tables_number  62
_chemical_formula_structural  Sc3As2
_chemical_formula_sum  Sc2As8
_cell_volume  411.0905070174506
_cell_formula_units_Z  4
loop_
  _symmetry_equiv_pos_site_id
 _symmetry_equiv_pos_as_xyz
 1  'x, y, z'
loop_
 _atom_site_type_symbol
 _atom_site_label
 _atom_site_symmetry_multiplicity
 _atom_site_fract_x
 _atom_site_fract_y
 _atom_site_fract_z
 _atom_site_fract_occupancy
 As  As1  1  0.75000  0.32119  0.01290  1
 As  As2  1  0.25000  0.82119  0.48710  1
 As  As3  1  0.75000  0.99414  0.18604  1
 As  As4  1  0.25000  0.00586  0.81396  1
 As  As5  1  0.75000  0.50586  0.68604  1
 As  As6  1  0.25000  0.49414  0.31396  1
 As  As7  1  0.25000  0.67881  0.98710  1
 As  As8  1  0.75000  0.17881  0.51290  1
 Sc  Sc1  1  0.75000  0.93657  0.62854  1
 Sc  Sc2  1  0.75000  0.86683  0.95078  1
 Sc  Sc3  1  0.25000  0.13317  0.04922  1
 Sc  Sc4  1  0.25000  0.06343  0.37146  1
 Sc  Sc5  1  0.75000  0.20411  0.77596  1
 Sc  Sc6  1  0.25000  0.43657  0.87146  1
 Sc  Sc7  1  0.75000  0.56343  0.12854  1
 Sc  Sc8  1  0.25000  0.79589  0.22404  1
 Sc  Sc9  1  0.25000  0.70411  0.72404  1
 Sc  Sc10  1  0.75000  0.29589  0.27596  1
 Sc  Sc11  1  0.75000  0.63317  0.45078  1
 Sc  Sc12  1  0.25000  0.36683  0.54922  1
