CIF file written using JARVIS-Tools package.
data_MgCrO2
_symmetry_space_group_name_H-M  'Cm'
_cell_length_a       2.93046
_cell_length_b       8.90443
_cell_length_c       7.06755
_cell_angle_alpha    78.8704
_cell_angle_beta     89.9742
_cell_angle_gamma    99.4407

_symmetry_Int_Tables_number  8
_chemical_formula_structural  MgCrO2
_chemical_formula_sum  Mg4Cr4O8
_cell_volume  178.4040501185427
_cell_formula_units_Z  4
loop_
  _symmetry_equiv_pos_site_id
 _symmetry_equiv_pos_as_xyz
 1  'x, y, z'
loop_
 _atom_site_type_symbol
 _atom_site_label
 _atom_site_symmetry_multiplicity
 _atom_site_fract_x
 _atom_site_fract_y
 _atom_site_fract_z
 _atom_site_fract_occupancy
 Cr  Cr1  1  -0.21186  0.60989  0.56619  1
 Cr  Cr2  1  0.77860  0.59172  0.16153  1
 Cr  Cr3  1  0.20102  0.43606  0.86020  1
 Cr  Cr4  1  0.18295  0.40083  0.45810  1
 Mg  Mg1  1  0.43372  0.90132  0.28251  1
 Mg  Mg2  1  0.54123  0.11712  0.75183  1
 Mg  Mg3  1  0.58795  0.21054  0.20600  1
 Mg  Mg4  1  0.38694  0.80785  0.81822  1
 O  O1  1  0.61062  0.25576  0.49071  1
 O  O2  1  0.78436  0.60313  0.85994  1
 O  O3  1  0.19454  0.42323  0.17689  1
 O  O4  1  0.36199  0.75806  0.53893  1
 O  O5  1  -0.03339  0.96754  0.78811  1
 O  O6  1  0.35218  0.73919  0.12058  1
 O  O7  1  0.00920  0.05263  0.23900  1
 O  O8  1  0.62605  0.28579  0.90688  1
