CIF file written using JARVIS-Tools package.
data_Sc6Si7Ni16
_symmetry_space_group_name_H-M  'Fm-3m'
_cell_length_a       8.1041
_cell_length_b       8.1041
_cell_length_c       8.1041
_cell_angle_alpha    60
_cell_angle_beta     60
_cell_angle_gamma    60

_symmetry_Int_Tables_number  225
_chemical_formula_structural  Sc6Si7Ni16
_chemical_formula_sum  Sc6Si7Ni6
_cell_volume  376.35713071527346
_cell_formula_units_Z  1
loop_
  _symmetry_equiv_pos_site_id
 _symmetry_equiv_pos_as_xyz
 1  'x, y, z'
loop_
 _atom_site_type_symbol
 _atom_site_label
 _atom_site_symmetry_multiplicity
 _atom_site_fract_x
 _atom_site_fract_y
 _atom_site_fract_z
 _atom_site_fract_occupancy
 Ni  Ni1  1  0.83194  0.83194  0.50418  1
 Ni  Ni2  1  0.16806  0.16806  0.49582  1
 Ni  Ni3  1  0.16806  0.16806  0.16806  1
 Ni  Ni4  1  0.61905  0.61905  0.14286  1
 Ni  Ni5  1  0.14286  0.61905  0.61905  1
 Ni  Ni6  1  0.61905  0.14286  0.61905  1
 Ni  Ni7  1  0.85714  0.38095  0.38095  1
 Ni  Ni8  1  0.83194  0.83194  0.83194  1
 Ni  Ni9  1  0.38095  0.38095  0.85714  1
 Ni  Ni10  1  0.16806  0.49582  0.16806  1
 Ni  Ni11  1  0.49582  0.16806  0.16806  1
 Ni  Ni12  1  0.83194  0.50418  0.83194  1
 Ni  Ni13  1  0.50418  0.83194  0.83194  1
 Ni  Ni14  1  0.38095  0.85714  0.38095  1
 Ni  Ni15  1  0.38095  0.38095  0.38095  1
 Ni  Ni16  1  0.61905  0.61905  0.61905  1
 Sc  Sc1  1  0.20817  0.79183  0.79183  1
 Sc  Sc2  1  0.20817  0.79183  0.20817  1
 Sc  Sc3  1  0.20817  0.20817  0.79183  1
 Sc  Sc4  1  0.79183  0.79183  0.20817  1
 Sc  Sc5  1  0.79183  0.20817  0.20817  1
 Sc  Sc6  1  0.79183  0.20817  0.79183  1
 Si  Si1  1  0.50000  0.00000  0.50000  1
 Si  Si2  1  0.50000  0.00000  0.00000  1
 Si  Si3  1  0.00000  0.00000  0.50000  1
 Si  Si4  1  0.50000  0.50000  0.00000  1
 Si  Si5  1  0.00000  0.50000  0.50000  1
 Si  Si6  1  0.00000  0.50000  0.00000  1
 Si  Si7  1  0.50000  0.50000  0.50000  1
