CIF file written using JARVIS-Tools package.
data_Lu7Te2Pd2
_symmetry_space_group_name_H-M  'Imm2'
_cell_length_a       3.86924
_cell_length_b       9.18977
_cell_length_c       9.18978
_cell_angle_alpha    61.7872
_cell_angle_beta     77.8473
_cell_angle_gamma    77.8473

_symmetry_Int_Tables_number  44
_chemical_formula_structural  Lu7Te2Pd2
_chemical_formula_sum  Lu7Te2Pd2
_cell_volume  279.14522690395114
_cell_formula_units_Z  1
loop_
  _symmetry_equiv_pos_site_id
 _symmetry_equiv_pos_as_xyz
 1  'x, y, z'
loop_
 _atom_site_type_symbol
 _atom_site_label
 _atom_site_symmetry_multiplicity
 _atom_site_fract_x
 _atom_site_fract_y
 _atom_site_fract_z
 _atom_site_fract_occupancy
 Lu  Lu1  1  0.68309  0.94378  0.69003  1
 Lu  Lu2  1  0.31691  0.30997  0.05622  1
 Lu  Lu3  1  0.00000  0.99946  0.00054  1
 Lu  Lu4  1  0.13185  0.28528  0.45102  1
 Lu  Lu5  1  0.86815  0.54898  0.71472  1
 Lu  Lu6  1  0.35564  0.91191  0.37681  1
 Lu  Lu7  1  0.64436  0.62319  0.08809  1
 Pd  Pd1  1  0.23638  0.69498  0.83227  1
 Pd  Pd2  1  0.76362  0.16773  0.30502  1
 Te  Te1  1  1.00000  0.66070  0.33930  1
 Te  Te2  1  0.50000  0.26741  0.73259  1
