CIF file written using JARVIS-Tools package.
data_NiSbSe
_symmetry_space_group_name_H-M  'P2_13'
_cell_length_a       6.15297
_cell_length_b       6.15297
_cell_length_c       6.15297
_cell_angle_alpha    90
_cell_angle_beta     90
_cell_angle_gamma    90

_symmetry_Int_Tables_number  198
_chemical_formula_structural  NiSbSe
_chemical_formula_sum  Ni4Sb4Se4
_cell_volume  232.94520940842622
_cell_formula_units_Z  4
loop_
  _symmetry_equiv_pos_site_id
 _symmetry_equiv_pos_as_xyz
 1  'x, y, z'
loop_
 _atom_site_type_symbol
 _atom_site_label
 _atom_site_symmetry_multiplicity
 _atom_site_fract_x
 _atom_site_fract_y
 _atom_site_fract_z
 _atom_site_fract_occupancy
 Ni  Ni1  1  0.99178  0.99178  0.99178  1
 Ni  Ni2  1  0.50822  0.00822  0.49178  1
 Ni  Ni3  1  0.49178  0.50822  0.00822  1
 Ni  Ni4  1  0.00822  0.49178  0.50822  1
 Sb  Sb1  1  0.36987  0.13013  0.86987  1
 Sb  Sb2  1  0.86987  0.36987  0.13013  1
 Sb  Sb3  1  0.63013  0.63013  0.63013  1
 Sb  Sb4  1  0.13013  0.86987  0.36987  1
 Se  Se1  1  0.87547  0.12453  0.62453  1
 Se  Se2  1  0.12453  0.62453  0.87547  1
 Se  Se3  1  0.62453  0.87547  0.12453  1
 Se  Se4  1  0.37547  0.37547  0.37547  1
