CIF file written using JARVIS-Tools package.
data_DyCuGe
_symmetry_space_group_name_H-M  'P6_3mc'
_cell_length_a       4.25791
_cell_length_b       4.25791
_cell_length_c       7.23114
_cell_angle_alpha    90
_cell_angle_beta     90
_cell_angle_gamma    120

_symmetry_Int_Tables_number  186
_chemical_formula_structural  DyCuGe
_chemical_formula_sum  Dy2Cu2Ge2
_cell_volume  113.53550082807736
_cell_formula_units_Z  2
loop_
  _symmetry_equiv_pos_site_id
 _symmetry_equiv_pos_as_xyz
 1  'x, y, z'
loop_
 _atom_site_type_symbol
 _atom_site_label
 _atom_site_symmetry_multiplicity
 _atom_site_fract_x
 _atom_site_fract_y
 _atom_site_fract_z
 _atom_site_fract_occupancy
 Cu  Cu1  1  0.66667  0.33333  0.45596  1
 Cu  Cu2  1  0.33333  0.66667  0.95596  1
 Dy  Dy1  1  0.00000  0.00000  0.23829  1
 Dy  Dy2  1  0.00000  0.00000  0.73829  1
 Ge  Ge1  1  0.33333  0.66667  0.51335  1
 Ge  Ge2  1  0.66667  0.33333  0.01335  1
