CIF file written using JARVIS-Tools package.
data_NiTe4O12
_symmetry_space_group_name_H-M  'P1'
_cell_length_a       5.07316
_cell_length_b       5.59442
_cell_length_c       7.5921
_cell_angle_alpha    83.4518
_cell_angle_beta     89.8745
_cell_angle_gamma    89.3404

_symmetry_Int_Tables_number  1
_chemical_formula_structural  NiTe4O12
_chemical_formula_sum  NiTe4O2
_cell_volume  214.05453322949015
_cell_formula_units_Z  1
loop_
  _symmetry_equiv_pos_site_id
 _symmetry_equiv_pos_as_xyz
 1  'x, y, z'
loop_
 _atom_site_type_symbol
 _atom_site_label
 _atom_site_symmetry_multiplicity
 _atom_site_fract_x
 _atom_site_fract_y
 _atom_site_fract_z
 _atom_site_fract_occupancy
 Ni  Ni1  1  0.99279  0.59974  0.29146  1
 O  O1  1  0.68219  0.75064  0.40554  1
 O  O2  1  0.85457  0.00303  0.74900  1
 O  O3  1  0.69266  0.17251  0.05985  1
 O  O4  1  0.12686  0.93050  0.22142  1
 O  O5  1  0.82253  0.30680  0.41021  1
 O  O6  1  0.63844  0.49238  0.74098  1
 O  O7  1  0.19072  0.28918  0.91226  1
 O  O8  1  0.34114  0.45080  0.23459  1
 O  O9  1  0.16955  0.61167  0.53256  1
 O  O10  1  0.29972  0.78037  0.90375  1
 O  O11  1  0.80963  0.66069  0.05593  1
 O  O12  1  0.36304  0.14397  0.56047  1
 Te  Te1  1  0.49217  0.47520  0.98570  1
 Te  Te2  1  0.01694  -0.00335  0.51097  1
 Te  Te3  1  0.50400  0.46514  0.50236  1
 Te  Te4  1  0.00303  0.98933  0.98226  1
