CIF file written using JARVIS-Tools package.
data_Tc2P3
_symmetry_space_group_name_H-M  'P-1'
_cell_length_a       6.4182
_cell_length_b       6.3719
_cell_length_c       7.72912
_cell_angle_alpha    95.5125
_cell_angle_beta     101.81
_cell_angle_gamma    104.599

_symmetry_Int_Tables_number  2
_chemical_formula_structural  Tc2P3
_chemical_formula_sum  Tc8P2
_cell_volume  295.75127874473327
_cell_formula_units_Z  4
loop_
  _symmetry_equiv_pos_site_id
 _symmetry_equiv_pos_as_xyz
 1  'x, y, z'
loop_
 _atom_site_type_symbol
 _atom_site_label
 _atom_site_symmetry_multiplicity
 _atom_site_fract_x
 _atom_site_fract_y
 _atom_site_fract_z
 _atom_site_fract_occupancy
 P  P1  1  0.54013  0.19017  0.96553  1
 P  P2  1  0.73595  0.58102  0.35835  1
 P  P3  1  0.03349  0.18097  0.95717  1
 P  P4  1  0.23534  0.56047  0.38392  1
 P  P5  1  0.76466  0.43953  0.61608  1
 P  P6  1  0.26405  0.41898  0.64165  1
 P  P7  1  0.14028  0.87256  0.68305  1
 P  P8  1  0.37027  0.14932  0.32174  1
 P  P9  1  0.62973  0.85068  0.67826  1
 P  P10  1  0.96651  0.81903  0.04283  1
 P  P11  1  0.45987  0.80983  0.03447  1
 P  P12  1  0.85972  0.12744  0.31695  1
 Tc  Tc1  1  0.91676  0.13105  0.62948  1
 Tc  Tc2  1  0.08324  0.86895  0.37052  1
 Tc  Tc3  1  0.46756  0.13993  0.63817  1
 Tc  Tc4  1  0.53244  0.86007  0.36183  1
 Tc  Tc5  1  0.62611  0.58225  0.86138  1
 Tc  Tc6  1  0.37389  0.41775  0.13862  1
 Tc  Tc7  1  0.09243  0.58424  0.85298  1
 Tc  Tc8  1  0.90757  0.41576  0.14702  1
