CIF file written using JARVIS-Tools package.
data_Ba5Ru2Cl2O9
_symmetry_space_group_name_H-M  'P6_3/mmc'
_cell_length_a       5.86486
_cell_length_b       5.86486
_cell_length_c       25.2167
_cell_angle_alpha    90
_cell_angle_beta     90
_cell_angle_gamma    120

_symmetry_Int_Tables_number  194
_chemical_formula_structural  Ba5Ru2Cl2O9
_chemical_formula_sum  Ba0Ru4Cl4O8
_cell_volume  751.1643686350702
_cell_formula_units_Z  2
loop_
  _symmetry_equiv_pos_site_id
 _symmetry_equiv_pos_as_xyz
 1  'x, y, z'
loop_
 _atom_site_type_symbol
 _atom_site_label
 _atom_site_symmetry_multiplicity
 _atom_site_fract_x
 _atom_site_fract_y
 _atom_site_fract_z
 _atom_site_fract_occupancy
 Ba  Ba1  1  0.66667  0.33333  0.82930  1
 Ba  Ba2  1  0.33333  0.66667  0.17070  1
 Ba  Ba3  1  0.33333  0.66667  0.58140  1
 Ba  Ba4  1  0.33333  0.66667  0.32930  1
 Ba  Ba5  1  0.33333  0.66667  0.91860  1
 Ba  Ba6  1  0.66667  0.33333  0.08140  1
 Ba  Ba7  1  0.66667  0.33333  0.41860  1
 Ba  Ba8  1  0.66667  0.33333  0.67070  1
 Ba  Ba9  1  0.66667  0.33333  0.25000  1
 Ba  Ba10  1  0.33333  0.66667  0.75000  1
 Cl  Cl1  1  0.66667  0.33333  0.54599  1
 Cl  Cl2  1  0.66667  0.33333  0.95401  1
 Cl  Cl3  1  0.33333  0.66667  0.04599  1
 Cl  Cl4  1  0.33333  0.66667  0.45401  1
 O  O1  1  0.83961  0.16039  0.34421  1
 O  O2  1  0.15124  0.30247  0.25000  1
 O  O3  1  0.69753  0.84876  0.25000  1
 O  O4  1  0.16039  0.32078  0.84421  1
 O  O5  1  0.83961  0.67922  0.15579  1
 O  O6  1  0.32078  0.16039  0.15579  1
 O  O7  1  0.67922  0.83961  0.84421  1
 O  O8  1  0.32078  0.16039  0.34421  1
 O  O9  1  0.84876  0.69753  0.75000  1
 O  O10  1  0.16039  0.83961  0.65579  1
 O  O11  1  0.83961  0.16039  0.15579  1
 O  O12  1  0.30247  0.15124  0.75000  1
 O  O13  1  0.83961  0.67922  0.34421  1
 O  O14  1  0.16039  0.83961  0.84421  1
 O  O15  1  0.67922  0.83961  0.65579  1
 O  O16  1  0.16039  0.32078  0.65579  1
 O  O17  1  0.84876  0.15124  0.75000  1
 O  O18  1  0.15124  0.84876  0.25000  1
 Ru  Ru1  1  0.00000  0.00000  0.80617  1
 Ru  Ru2  1  0.00000  0.00000  0.30617  1
 Ru  Ru3  1  0.00000  0.00000  0.69383  1
 Ru  Ru4  1  0.00000  0.00000  0.19383  1
