CIF file written using JARVIS-Tools package.
data_Tl3AsO4
_symmetry_space_group_name_H-M  'P6_3'
_cell_length_a       8.57439
_cell_length_b       8.57439
_cell_length_c       5.31808
_cell_angle_alpha    90
_cell_angle_beta     90
_cell_angle_gamma    120

_symmetry_Int_Tables_number  173
_chemical_formula_structural  Tl3AsO4
_chemical_formula_sum  Tl6As2O8
_cell_volume  338.603449226772
_cell_formula_units_Z  2
loop_
  _symmetry_equiv_pos_site_id
 _symmetry_equiv_pos_as_xyz
 1  'x, y, z'
loop_
 _atom_site_type_symbol
 _atom_site_label
 _atom_site_symmetry_multiplicity
 _atom_site_fract_x
 _atom_site_fract_y
 _atom_site_fract_z
 _atom_site_fract_occupancy
 As  As1  1  0.66667  0.33333  0.98362  1
 As  As2  1  0.33333  0.66667  0.48362  1
 O  O1  1  0.49053  0.61032  0.58126  1
 O  O2  1  0.88021  0.49053  0.08126  1
 O  O3  1  0.61032  0.11979  0.08126  1
 O  O4  1  0.38968  0.88021  0.58126  1
 O  O5  1  0.66667  0.33333  0.65417  1
 O  O6  1  0.50947  0.38968  0.08126  1
 O  O7  1  0.33333  0.66667  0.15417  1
 O  O8  1  0.11979  0.50947  0.58126  1
 Tl  Tl1  1  0.64642  0.73463  0.00551  1
 Tl  Tl2  1  0.26537  0.91179  0.00551  1
 Tl  Tl3  1  0.91179  0.64642  0.50551  1
 Tl  Tl4  1  0.35358  0.26537  0.50551  1
 Tl  Tl5  1  0.73463  0.08821  0.50551  1
 Tl  Tl6  1  0.08821  0.35358  0.00551  1
