CIF file written using JARVIS-Tools package.
data_NaMnAsO4
_symmetry_space_group_name_H-M  'Pnma'
_cell_length_a       5.21544
_cell_length_b       6.40586
_cell_length_c       10.8463
_cell_angle_alpha    90
_cell_angle_beta     90
_cell_angle_gamma    90

_symmetry_Int_Tables_number  62
_chemical_formula_structural  NaMnAsO4
_chemical_formula_sum  Na4Mn4As4O6
_cell_volume  362.368097225386
_cell_formula_units_Z  4
loop_
  _symmetry_equiv_pos_site_id
 _symmetry_equiv_pos_as_xyz
 1  'x, y, z'
loop_
 _atom_site_type_symbol
 _atom_site_label
 _atom_site_symmetry_multiplicity
 _atom_site_fract_x
 _atom_site_fract_y
 _atom_site_fract_z
 _atom_site_fract_occupancy
 As  As1  1  0.05599  0.75000  0.39613  1
 As  As2  1  0.94401  0.25000  0.60387  1
 As  As3  1  0.44401  0.75000  0.89613  1
 As  As4  1  0.55599  0.25000  0.10387  1
 Mn  Mn1  1  0.49150  0.25000  0.78085  1
 Mn  Mn2  1  0.99150  0.75000  0.71915  1
 Mn  Mn3  1  0.00850  0.25000  0.28085  1
 Mn  Mn4  1  0.50850  0.75000  0.21915  1
 Na  Na1  1  0.50000  0.50000  0.50000  1
 Na  Na2  1  0.50000  0.00000  0.50000  1
 Na  Na3  1  0.00000  0.50000  0.00000  1
 Na  Na4  1  0.00000  0.00000  0.00000  1
 O  O1  1  0.20524  0.95884  0.32259  1
 O  O2  1  0.29476  0.95884  0.82259  1
 O  O3  1  0.67103  0.25000  0.95411  1
 O  O4  1  0.70524  0.45884  0.17741  1
 O  O5  1  0.20524  0.54116  0.32259  1
 O  O6  1  0.70524  0.04116  0.17741  1
 O  O7  1  0.79476  0.04116  0.67741  1
 O  O8  1  0.82897  0.25000  0.45411  1
 O  O9  1  0.22835  0.25000  0.11056  1
 O  O10  1  0.72835  0.75000  0.38944  1
 O  O11  1  0.77165  0.75000  0.88944  1
 O  O12  1  0.27165  0.25000  0.61056  1
 O  O13  1  0.29476  0.54116  0.82259  1
 O  O14  1  0.32897  0.75000  0.04589  1
 O  O15  1  0.79476  0.45884  0.67741  1
 O  O16  1  0.17103  0.75000  0.54589  1
