CIF file written using JARVIS-Tools package.
data_HfPtPb
_symmetry_space_group_name_H-M  'Cm'
_cell_length_a       3.38706
_cell_length_b       3.39478
_cell_length_c       6.26566
_cell_angle_alpha    105.731
_cell_angle_beta     75.0347
_cell_angle_gamma    89.9984

_symmetry_Int_Tables_number  8
_chemical_formula_structural  HfPtPb
_chemical_formula_sum  HfPtPb
_cell_volume  66.80376333651142
_cell_formula_units_Z  1
loop_
  _symmetry_equiv_pos_site_id
 _symmetry_equiv_pos_as_xyz
 1  'x, y, z'
loop_
 _atom_site_type_symbol
 _atom_site_label
 _atom_site_symmetry_multiplicity
 _atom_site_fract_x
 _atom_site_fract_y
 _atom_site_fract_z
 _atom_site_fract_occupancy
 Hf  Hf1  1  0.45159  0.55137  0.10270  1
 Pb  Pb1  1  0.74358  0.25517  0.51022  1
 Pt  Pt1  1  0.05483  0.94346  0.88708  1
