CIF file written using JARVIS-Tools package.
data_Rb3FeO3
_symmetry_space_group_name_H-M  'C2/m'
_cell_length_a       6.76943
_cell_length_b       6.82895
_cell_length_c       6.82895
_cell_angle_alpha    113.316
_cell_angle_beta     97.2099
_cell_angle_gamma    97.2099

_symmetry_Int_Tables_number  12
_chemical_formula_structural  Rb3FeO3
_chemical_formula_sum  Rb6Fe2O6
_cell_volume  282.2513983605041
_cell_formula_units_Z  2
loop_
  _symmetry_equiv_pos_site_id
 _symmetry_equiv_pos_as_xyz
 1  'x, y, z'
loop_
 _atom_site_type_symbol
 _atom_site_label
 _atom_site_symmetry_multiplicity
 _atom_site_fract_x
 _atom_site_fract_y
 _atom_site_fract_z
 _atom_site_fract_occupancy
 Fe  Fe1  1  0.85421  0.83133  0.83133  1
 Fe  Fe2  1  0.14579  0.16867  0.16867  1
 O  O1  1  0.26637  0.42201  0.15414  1
 O  O2  1  0.73363  0.57799  0.84586  1
 O  O3  1  0.15495  0.90723  0.90723  1
 O  O4  1  0.26637  0.15414  0.42201  1
 O  O5  1  0.73363  0.84586  0.57799  1
 O  O6  1  0.84505  0.09277  0.09277  1
 Rb  Rb1  1  0.00000  0.26084  0.73916  1
 Rb  Rb2  1  -0.00000  0.73916  0.26084  1
 Rb  Rb3  1  0.50000  0.18581  0.81419  1
 Rb  Rb4  1  0.50000  0.81419  0.18581  1
 Rb  Rb5  1  0.34407  0.62624  0.62624  1
 Rb  Rb6  1  0.65593  0.37376  0.37376  1
