CIF file written using JARVIS-Tools package.
data_Y2Be2SiO7
_symmetry_space_group_name_H-M  'P-42_1m'
_cell_length_a       7.32769
_cell_length_b       7.32769
_cell_length_c       4.781
_cell_angle_alpha    90
_cell_angle_beta     90
_cell_angle_gamma    90

_symmetry_Int_Tables_number  113
_chemical_formula_structural  Y2Be2SiO7
_chemical_formula_sum  Y4Be4Si2O4
_cell_volume  256.7164525981769
_cell_formula_units_Z  2
loop_
  _symmetry_equiv_pos_site_id
 _symmetry_equiv_pos_as_xyz
 1  'x, y, z'
loop_
 _atom_site_type_symbol
 _atom_site_label
 _atom_site_symmetry_multiplicity
 _atom_site_fract_x
 _atom_site_fract_y
 _atom_site_fract_z
 _atom_site_fract_occupancy
 Be  Be1  1  0.13728  0.63728  0.04164  1
 Be  Be2  1  0.63728  0.86272  0.95836  1
 Be  Be3  1  0.36272  0.13728  0.95836  1
 Be  Be4  1  0.86272  0.36272  0.04164  1
 O  O1  1  0.85838  0.35838  0.70858  1
 O  O2  1  0.91843  0.16285  0.20080  1
 O  O3  1  0.50000  0.00000  0.81783  1
 O  O4  1  0.16285  0.08157  0.79920  1
 O  O5  1  0.08157  0.83715  0.20080  1
 O  O6  1  0.41843  0.33715  0.79920  1
 O  O7  1  0.83715  0.91843  0.79920  1
 O  O8  1  0.66285  0.41843  0.20080  1
 O  O9  1  0.33715  0.58157  0.20080  1
 O  O10  1  0.00000  0.50000  0.18217  1
 O  O11  1  0.14162  0.64162  0.70858  1
 O  O12  1  0.58157  0.66285  0.79920  1
 O  O13  1  0.35838  0.14162  0.29142  1
 O  O14  1  0.64162  0.85838  0.29142  1
 Si  Si1  1  0.00000  0.00000  0.00000  1
 Si  Si2  1  0.50000  0.50000  0.00000  1
 Y  Y1  1  0.84102  0.65898  0.50668  1
 Y  Y2  1  0.34102  0.84102  0.49332  1
 Y  Y3  1  0.65898  0.15898  0.49332  1
 Y  Y4  1  0.15898  0.34102  0.50668  1
