CIF file written using JARVIS-Tools package.
data_TbCuSe2
_symmetry_space_group_name_H-M  'P2_1/c'
_cell_length_a       6.61294
_cell_length_b       7.33107
_cell_length_c       7.09084
_cell_angle_alpha    90
_cell_angle_beta     96.2738
_cell_angle_gamma    90

_symmetry_Int_Tables_number  14
_chemical_formula_structural  TbCuSe2
_chemical_formula_sum  Tb4Cu4Se8
_cell_volume  341.7047196798757
_cell_formula_units_Z  4
loop_
  _symmetry_equiv_pos_site_id
 _symmetry_equiv_pos_as_xyz
 1  'x, y, z'
loop_
 _atom_site_type_symbol
 _atom_site_label
 _atom_site_symmetry_multiplicity
 _atom_site_fract_x
 _atom_site_fract_y
 _atom_site_fract_z
 _atom_site_fract_occupancy
 Cu  Cu1  1  0.57452  0.34154  0.04470  1
 Cu  Cu2  1  0.42548  0.65846  0.95530  1
 Cu  Cu3  1  0.57452  0.15846  0.54470  1
 Cu  Cu4  1  0.42548  0.84154  0.45530  1
 Se  Se1  1  0.07079  0.77520  0.49829  1
 Se  Se2  1  0.07079  0.72480  0.99829  1
 Se  Se3  1  0.92921  0.27520  0.00171  1
 Se  Se4  1  0.92921  0.22480  0.50171  1
 Se  Se5  1  0.39901  0.38865  0.71548  1
 Se  Se6  1  0.60099  0.88865  0.78452  1
 Se  Se7  1  0.60099  0.61135  0.28452  1
 Se  Se8  1  0.39901  0.11135  0.21548  1
 Tb  Tb1  1  0.80417  0.54242  0.70056  1
 Tb  Tb2  1  0.19583  0.04242  0.79944  1
 Tb  Tb3  1  0.19583  0.45758  0.29944  1
 Tb  Tb4  1  0.80417  0.95758  0.20056  1
