CIF file written using JARVIS-Tools package.
data_Y2ZnS4
_symmetry_space_group_name_H-M  'Fd-3m'
_cell_length_a       7.77202
_cell_length_b       7.77202
_cell_length_c       7.77202
_cell_angle_alpha    60
_cell_angle_beta     60
_cell_angle_gamma    60

_symmetry_Int_Tables_number  227
_chemical_formula_structural  Y2ZnS4
_chemical_formula_sum  Y4Zn2S8
_cell_volume  331.96068344761136
_cell_formula_units_Z  2
loop_
  _symmetry_equiv_pos_site_id
 _symmetry_equiv_pos_as_xyz
 1  'x, y, z'
loop_
 _atom_site_type_symbol
 _atom_site_label
 _atom_site_symmetry_multiplicity
 _atom_site_fract_x
 _atom_site_fract_y
 _atom_site_fract_z
 _atom_site_fract_occupancy
 S  S1  1  0.74841  0.75478  0.24841  1
 S  S2  1  0.74841  0.24841  0.75478  1
 S  S3  1  0.74841  0.24841  0.24841  1
 S  S4  1  0.25478  0.24841  0.24841  1
 S  S5  1  0.25159  0.24522  0.75159  1
 S  S6  1  0.25159  0.75159  0.24522  1
 S  S7  1  0.25159  0.75159  0.75159  1
 S  S8  1  0.74522  0.75159  0.75159  1
 Y  Y1  1  0.50000  0.50000  -0.00000  1
 Y  Y2  1  0.50000  -0.00000  0.50000  1
 Y  Y3  1  0.50000  0.00000  -0.00000  1
 Y  Y4  1  0.00000  0.00000  0.00000  1
 Zn  Zn1  1  0.87500  0.37500  0.37500  1
 Zn  Zn2  1  0.12500  0.62500  0.62500  1
