CIF file written using JARVIS-Tools package.
data_Na2SiF6
_symmetry_space_group_name_H-M  'P321'
_cell_length_a       8.93593
_cell_length_b       8.93593
_cell_length_c       5.00059
_cell_angle_alpha    90
_cell_angle_beta     90
_cell_angle_gamma    120

_symmetry_Int_Tables_number  150
_chemical_formula_structural  Na2SiF6
_chemical_formula_sum  Na6Si3F8
_cell_volume  345.8050749342209
_cell_formula_units_Z  3
loop_
  _symmetry_equiv_pos_site_id
 _symmetry_equiv_pos_as_xyz
 1  'x, y, z'
loop_
 _atom_site_type_symbol
 _atom_site_label
 _atom_site_symmetry_multiplicity
 _atom_site_fract_x
 _atom_site_fract_y
 _atom_site_fract_z
 _atom_site_fract_occupancy
 F  F1  1  0.18203  0.09721  0.19596  1
 F  F2  1  0.74093  0.22637  0.69151  1
 F  F3  1  0.77363  0.51456  0.69151  1
 F  F4  1  0.48544  0.25907  0.69151  1
 F  F5  1  0.51456  0.77363  0.30849  1
 F  F6  1  0.40407  0.84704  0.70448  1
 F  F7  1  0.22637  0.74093  0.30849  1
 F  F8  1  0.59593  0.44298  0.29552  1
 F  F9  1  0.25907  0.48544  0.30849  1
 F  F10  1  0.84704  0.40407  0.29552  1
 F  F11  1  0.09721  0.18203  0.80404  1
 F  F12  1  0.81797  0.91518  0.80404  1
 F  F13  1  0.55702  0.15296  0.29552  1
 F  F14  1  0.15296  0.55702  0.70448  1
 F  F15  1  0.90279  0.08482  0.19596  1
 F  F16  1  0.44298  0.59593  0.70448  1
 F  F17  1  0.08482  0.90279  0.80404  1
 F  F18  1  0.91518  0.81797  0.19596  1
 Na  Na1  1  0.37514  0.37514  0.00000  1
 Na  Na2  1  0.62486  -0.00000  0.00000  1
 Na  Na3  1  -0.00000  0.62486  0.00000  1
 Na  Na4  1  0.70966  0.70966  0.50000  1
 Na  Na5  1  0.29034  -0.00000  0.50000  1
 Na  Na6  1  -0.00000  0.29034  0.50000  1
 Si  Si1  1  0.66667  0.33333  0.49370  1
 Si  Si2  1  0.00000  0.00000  0.00000  1
 Si  Si3  1  0.33333  0.66667  0.50630  1
