CIF file written using JARVIS-Tools package.
data_Dy6FeTe2
_symmetry_space_group_name_H-M  'P-62m'
_cell_length_a       8.28621
_cell_length_b       8.28621
_cell_length_c       3.93476
_cell_angle_alpha    90
_cell_angle_beta     90
_cell_angle_gamma    120

_symmetry_Int_Tables_number  189
_chemical_formula_structural  Dy6FeTe2
_chemical_formula_sum  Dy6FeTe2
_cell_volume  233.97032589155046
_cell_formula_units_Z  1
loop_
  _symmetry_equiv_pos_site_id
 _symmetry_equiv_pos_as_xyz
 1  'x, y, z'
loop_
 _atom_site_type_symbol
 _atom_site_label
 _atom_site_symmetry_multiplicity
 _atom_site_fract_x
 _atom_site_fract_y
 _atom_site_fract_z
 _atom_site_fract_occupancy
 Dy  Dy1  1  0.00000  0.39640  0.50000  1
 Dy  Dy2  1  0.60360  0.60360  0.50000  1
 Dy  Dy3  1  0.39640  0.00000  0.50000  1
 Dy  Dy4  1  0.76593  -0.00000  0.00000  1
 Dy  Dy5  1  0.23407  0.23407  0.00000  1
 Dy  Dy6  1  -0.00000  0.76593  0.00000  1
 Fe  Fe1  1  0.00000  0.00000  0.50000  1
 Te  Te1  1  0.33333  0.66667  0.00000  1
 Te  Te2  1  0.66667  0.33333  0.00000  1
