CIF file written using JARVIS-Tools package.
data_H5PbCI3N2
_symmetry_space_group_name_H-M  'Pmm2'
_cell_length_a       6.48683
_cell_length_b       6.30979
_cell_length_c       6.40532
_cell_angle_alpha    90
_cell_angle_beta     90
_cell_angle_gamma    90

_symmetry_Int_Tables_number  25
_chemical_formula_structural  H5PbCI3N2
_chemical_formula_sum  H5PbCI3N2
_cell_volume  262.17273633727484
_cell_formula_units_Z  1
loop_
  _symmetry_equiv_pos_site_id
 _symmetry_equiv_pos_as_xyz
 1  'x, y, z'
loop_
 _atom_site_type_symbol
 _atom_site_label
 _atom_site_symmetry_multiplicity
 _atom_site_fract_x
 _atom_site_fract_y
 _atom_site_fract_z
 _atom_site_fract_occupancy
 C  C1  1  0.50000  0.52890  0.50000  1
 H  H1  1  0.50000  0.70226  0.50000  1
 H  H2  1  0.80920  0.52531  0.50000  1
 H  H3  1  0.69773  0.27223  0.50000  1
 H  H4  1  0.30227  0.27223  0.50000  1
 H  H5  1  0.19080  0.52531  0.50000  1
 I  I1  1  0.50000  0.95871  0.00000  1
 I  I2  1  0.00000  0.44454  0.00000  1
 I  I3  1  -0.00000  0.92668  0.50000  1
 N  N1  1  0.67957  0.43343  0.50000  1
 N  N2  1  0.32043  0.43343  0.50000  1
 Pb  Pb1  1  0.00000  0.94549  0.00000  1
