CIF file written using JARVIS-Tools package.
data_Sc3Co2Si3
_symmetry_space_group_name_H-M  'Cmcm'
_cell_length_a       3.93628
_cell_length_b       5.33186
_cell_length_c       12.8663
_cell_angle_alpha    90
_cell_angle_beta     90
_cell_angle_gamma    111.662

_symmetry_Int_Tables_number  63
_chemical_formula_structural  Sc3Co2Si3
_chemical_formula_sum  Sc6Co4Si6
_cell_volume  250.96463845370798
_cell_formula_units_Z  2
loop_
  _symmetry_equiv_pos_site_id
 _symmetry_equiv_pos_as_xyz
 1  'x, y, z'
loop_
 _atom_site_type_symbol
 _atom_site_label
 _atom_site_symmetry_multiplicity
 _atom_site_fract_x
 _atom_site_fract_y
 _atom_site_fract_z
 _atom_site_fract_occupancy
 Co  Co1  1  0.71497  0.42994  0.58475  1
 Co  Co2  1  0.28503  0.57006  0.08475  1
 Co  Co3  1  0.71497  0.42994  0.91525  1
 Co  Co4  1  0.28503  0.57006  0.41525  1
 Sc  Sc1  1  0.14304  0.28608  0.75000  1
 Sc  Sc2  1  0.42045  0.84089  0.61290  1
 Sc  Sc3  1  0.42045  0.84089  0.88710  1
 Sc  Sc4  1  0.57955  0.15911  0.11290  1
 Sc  Sc5  1  0.85696  0.71392  0.25000  1
 Sc  Sc6  1  0.57955  0.15911  0.38710  1
 Si  Si1  1  0.16229  0.32458  0.25000  1
 Si  Si2  1  0.88552  0.77105  0.45897  1
 Si  Si3  1  0.88552  0.77105  0.04103  1
 Si  Si4  1  0.11448  0.22895  0.54103  1
 Si  Si5  1  0.83771  0.67542  0.75000  1
 Si  Si6  1  0.11448  0.22895  0.95897  1
