CIF file written using JARVIS-Tools package.
data_Tm2MnS4
_symmetry_space_group_name_H-M  'I-42d'
_cell_length_a       7.51173
_cell_length_b       7.51174
_cell_length_c       7.51173
_cell_angle_alpha    106.403
_cell_angle_beta     106.403
_cell_angle_gamma    115.8

_symmetry_Int_Tables_number  122
_chemical_formula_structural  Tm2MnS4
_chemical_formula_sum  Tm4Mn2S8
_cell_volume  323.2684860808375
_cell_formula_units_Z  2
loop_
  _symmetry_equiv_pos_site_id
 _symmetry_equiv_pos_as_xyz
 1  'x, y, z'
loop_
 _atom_site_type_symbol
 _atom_site_label
 _atom_site_symmetry_multiplicity
 _atom_site_fract_x
 _atom_site_fract_y
 _atom_site_fract_z
 _atom_site_fract_occupancy
 Mn  Mn1  1  0.62500  0.37500  0.25000  1
 Mn  Mn2  1  0.87500  0.12500  0.75000  1
 S  S1  1  0.03635  0.99160  0.55201  1
 S  S2  1  0.98434  0.43959  0.44799  1
 S  S3  1  0.46365  0.01566  0.95525  1
 S  S4  1  0.00840  0.06041  0.04475  1
 S  S5  1  0.49160  0.53635  0.05201  1
 S  S6  1  0.56041  0.50840  0.54475  1
 S  S7  1  0.51566  0.96365  0.45525  1
 S  S8  1  0.93959  0.48434  0.94799  1
 Tm  Tm1  1  0.01837  0.75000  0.76837  1
 Tm  Tm2  1  0.25000  0.51837  0.26837  1
 Tm  Tm3  1  0.48163  0.25000  0.73163  1
 Tm  Tm4  1  0.75000  0.98163  0.23163  1
