CIF file written using JARVIS-Tools package.
data_Na4SrSi3O9
_symmetry_space_group_name_H-M  'C2'
_cell_length_a       6.55288
_cell_length_b       6.70167
_cell_length_c       6.65624
_cell_angle_alpha    110.406
_cell_angle_beta     109.511
_cell_angle_gamma    108.322

_symmetry_Int_Tables_number  5
_chemical_formula_structural  Na4SrSi3O9
_chemical_formula_sum  Na4SrSi3O9
_cell_volume  225.44834511117773
_cell_formula_units_Z  1
loop_
  _symmetry_equiv_pos_site_id
 _symmetry_equiv_pos_as_xyz
 1  'x, y, z'
loop_
 _atom_site_type_symbol
 _atom_site_label
 _atom_site_symmetry_multiplicity
 _atom_site_fract_x
 _atom_site_fract_y
 _atom_site_fract_z
 _atom_site_fract_occupancy
 Na  Na1  1  0.49863  0.49863  -0.00273  1
 Na  Na2  1  0.53129  0.03129  0.06258  1
 Na  Na3  1  0.45877  0.45754  0.47919  1
 Na  Na4  1  0.02042  0.02165  0.47919  1
 O  O1  1  0.29000  0.79000  0.58000  1
 O  O2  1  0.82158  0.43562  0.24923  1
 O  O3  1  0.12699  0.41302  0.64290  1
 O  O4  1  0.95688  0.71909  0.72017  1
 O  O5  1  0.51591  0.22988  0.64290  1
 O  O6  1  0.76329  0.00108  0.72017  1
 O  O7  1  0.42764  0.81361  0.24923  1
 O  O8  1  0.21843  0.20877  0.06174  1
 O  O9  1  0.84331  0.85297  0.06174  1
 Si  Si1  1  0.03860  0.56803  0.53153  1
 Si  Si2  1  0.95926  0.95926  0.91853  1
 Si  Si3  1  0.49294  0.96350  0.53153  1
 Sr  Sr1  1  0.98406  0.48406  0.96812  1
