CIF file written using JARVIS-Tools package.
data_Sr2Bi3
_symmetry_space_group_name_H-M  'Pnna'
_cell_length_a       6.65383
_cell_length_b       6.86771
_cell_length_c       15.6482
_cell_angle_alpha    90
_cell_angle_beta     90
_cell_angle_gamma    90

_symmetry_Int_Tables_number  52
_chemical_formula_structural  Sr2Bi3
_chemical_formula_sum  Sr8Bi2
_cell_volume  715.0687328623641
_cell_formula_units_Z  4
loop_
  _symmetry_equiv_pos_site_id
 _symmetry_equiv_pos_as_xyz
 1  'x, y, z'
loop_
 _atom_site_type_symbol
 _atom_site_label
 _atom_site_symmetry_multiplicity
 _atom_site_fract_x
 _atom_site_fract_y
 _atom_site_fract_z
 _atom_site_fract_occupancy
 Bi  Bi1  1  0.57890  0.06385  0.84649  1
 Bi  Bi2  1  0.75000  0.75000  0.43045  1
 Bi  Bi3  1  0.92110  0.56385  0.65351  1
 Bi  Bi4  1  0.25000  0.25000  0.56955  1
 Bi  Bi5  1  0.25000  0.75000  0.93045  1
 Bi  Bi6  1  0.75000  0.25000  0.06955  1
 Bi  Bi7  1  0.42110  0.06385  0.34649  1
 Bi  Bi8  1  0.07890  0.43615  0.34649  1
 Bi  Bi9  1  0.07890  0.56385  0.15351  1
 Bi  Bi10  1  0.92110  0.43615  0.84649  1
 Bi  Bi11  1  0.57890  0.93615  0.65351  1
 Bi  Bi12  1  0.42110  0.93615  0.15351  1
 Sr  Sr1  1  0.25000  0.75000  0.50013  1
 Sr  Sr2  1  0.25000  0.25000  0.99987  1
 Sr  Sr3  1  0.75000  0.25000  0.49987  1
 Sr  Sr4  1  0.75000  0.75000  0.00013  1
 Sr  Sr5  1  0.44010  0.50000  0.75000  1
 Sr  Sr6  1  0.05990  0.00000  0.75000  1
 Sr  Sr7  1  0.55990  0.50000  0.25000  1
 Sr  Sr8  1  0.94010  0.00000  0.25000  1
