CIF file written using JARVIS-Tools package.
data_HoSi
_symmetry_space_group_name_H-M  'Cmcm'
_cell_length_a       3.82835
_cell_length_b       4.25716
_cell_length_c       5.65974
_cell_angle_alpha    112.092
_cell_angle_beta     90
_cell_angle_gamma    90

_symmetry_Int_Tables_number  63
_chemical_formula_structural  HoSi
_chemical_formula_sum  Ho2Si2
_cell_volume  85.46957542658939
_cell_formula_units_Z  2
loop_
  _symmetry_equiv_pos_site_id
 _symmetry_equiv_pos_as_xyz
 1  'x, y, z'
loop_
 _atom_site_type_symbol
 _atom_site_label
 _atom_site_symmetry_multiplicity
 _atom_site_fract_x
 _atom_site_fract_y
 _atom_site_fract_z
 _atom_site_fract_occupancy
 Ho  Ho1  1  0.25000  0.85951  0.71902  1
 Ho  Ho2  1  0.75000  0.14049  0.28098  1
 Si  Si1  1  0.25000  0.57814  0.15629  1
 Si  Si2  1  0.75000  0.42186  0.84371  1
