CIF file written using JARVIS-Tools package.
data_MgVO3
_symmetry_space_group_name_H-M  'Cmcm'
_cell_length_a       5.26929
_cell_length_b       5.25461
_cell_length_c       5.75102
_cell_angle_alpha    90
_cell_angle_beta     117.266
_cell_angle_gamma    90

_symmetry_Int_Tables_number  63
_chemical_formula_structural  MgVO3
_chemical_formula_sum  Mg2V2O6
_cell_volume  141.5424812470441
_cell_formula_units_Z  2
loop_
  _symmetry_equiv_pos_site_id
 _symmetry_equiv_pos_as_xyz
 1  'x, y, z'
loop_
 _atom_site_type_symbol
 _atom_site_label
 _atom_site_symmetry_multiplicity
 _atom_site_fract_x
 _atom_site_fract_y
 _atom_site_fract_z
 _atom_site_fract_occupancy
 Mg  Mg1  1  0.57532  0.01282  0.15063  1
 Mg  Mg2  1  0.42468  0.51282  0.84937  1
 O  O1  1  0.23769  0.26281  -0.00002  1
 O  O2  1  0.76231  0.76281  0.00002  1
 O  O3  1  0.76229  0.26281  -0.00002  1
 O  O4  1  0.23771  0.76281  0.00002  1
 O  O5  1  0.76559  0.01276  0.53117  1
 O  O6  1  0.23441  0.51276  0.46883  1
 V  V1  1  0.92926  0.01280  0.85853  1
 V  V2  1  0.07074  0.51280  0.14147  1
