CIF file written using JARVIS-Tools package.
data_Mn4CuO8
_symmetry_space_group_name_H-M  'C2/m'
_cell_length_a       6.09701
_cell_length_b       6.09701
_cell_length_c       5.80011
_cell_angle_alpha    85.6152
_cell_angle_beta     57.6904
_cell_angle_gamma    55.6487

_symmetry_Int_Tables_number  12
_chemical_formula_structural  Mn4CuO8
_chemical_formula_sum  Mn4CuO8
_cell_volume  142.39993804369695
_cell_formula_units_Z  1
loop_
  _symmetry_equiv_pos_site_id
 _symmetry_equiv_pos_as_xyz
 1  'x, y, z'
loop_
 _atom_site_type_symbol
 _atom_site_label
 _atom_site_symmetry_multiplicity
 _atom_site_fract_x
 _atom_site_fract_y
 _atom_site_fract_z
 _atom_site_fract_occupancy
 Cu  Cu1  1  0.50000  0.50000  0.00000  1
 Mn  Mn1  1  0.00000  0.50000  0.50000  1
 Mn  Mn2  1  0.00000  0.00000  0.00000  1
 Mn  Mn3  1  0.50000  0.00000  0.00000  1
 Mn  Mn4  1  0.00000  0.50000  0.00000  1
 O  O1  1  0.46063  0.24018  0.77955  1
 O  O2  1  0.98054  0.28217  0.79743  1
 O  O3  1  0.48474  0.77797  0.79743  1
 O  O4  1  0.97793  0.72529  0.74736  1
 O  O5  1  0.02207  0.27471  0.25264  1
 O  O6  1  0.51526  0.22203  0.20257  1
 O  O7  1  0.01946  0.71783  0.20257  1
 O  O8  1  0.53937  0.75982  0.22045  1
