CIF file written using JARVIS-Tools package.
data_Er2O3
_symmetry_space_group_name_H-M  'Ia-3'
_cell_length_a       9.1015
_cell_length_b       9.1015
_cell_length_c       9.1015
_cell_angle_alpha    109.471
_cell_angle_beta     109.471
_cell_angle_gamma    109.471

_symmetry_Int_Tables_number  206
_chemical_formula_structural  Er2O3
_chemical_formula_sum  Er6O24
_cell_volume  580.3869996648818
_cell_formula_units_Z  8
loop_
  _symmetry_equiv_pos_site_id
 _symmetry_equiv_pos_as_xyz
 1  'x, y, z'
loop_
 _atom_site_type_symbol
 _atom_site_label
 _atom_site_symmetry_multiplicity
 _atom_site_fract_x
 _atom_site_fract_y
 _atom_site_fract_z
 _atom_site_fract_occupancy
 Er  Er1  1  0.00000  0.00000  0.00000  1
 Er  Er2  1  0.00000  0.50000  0.50000  1
 Er  Er3  1  0.28270  0.25000  0.53270  1
 Er  Er4  1  0.50000  0.50000  -0.00000  1
 Er  Er5  1  0.25000  0.53270  0.28270  1
 Er  Er6  1  0.96730  0.21730  0.75000  1
 Er  Er7  1  0.21730  0.75000  0.96730  1
 Er  Er8  1  0.53270  0.28270  0.25000  1
 Er  Er9  1  0.50000  0.00000  0.50000  1
 Er  Er10  1  0.75000  0.96730  0.21730  1
 Er  Er11  1  0.03270  0.78270  0.25000  1
 Er  Er12  1  0.78270  0.25000  0.03270  1
 Er  Er13  1  0.46730  0.71730  0.75000  1
 Er  Er14  1  0.71730  0.75000  0.46730  1
 Er  Er15  1  0.25000  0.03270  0.78270  1
 Er  Er16  1  0.75000  0.46730  0.71730  1
 O  O1  1  0.23939  0.77109  0.72764  1
 O  O2  1  0.46830  0.73939  0.01174  1
 O  O3  1  0.03170  0.04345  0.27109  1
 O  O4  1  0.48826  0.22764  0.45655  1
 O  O5  1  0.77236  0.54345  0.51174  1
 O  O6  1  0.77109  0.72764  0.23939  1
 O  O7  1  0.72891  0.96830  0.95655  1
 O  O8  1  0.51174  0.77236  0.54345  1
 O  O9  1  0.04345  0.27109  0.03170  1
 O  O10  1  0.98826  0.53170  0.26061  1
 O  O11  1  0.27236  0.76061  0.22891  1
 O  O12  1  0.72764  0.23939  0.77109  1
 O  O13  1  0.45655  0.48826  0.22764  1
 O  O14  1  0.22764  0.45655  0.48826  1
 O  O15  1  0.27109  0.03170  0.04345  1
 O  O16  1  0.22891  0.27236  0.76061  1
 O  O17  1  0.96830  0.95655  0.72891  1
 O  O18  1  0.01174  0.46830  0.73939  1
 O  O19  1  0.76061  0.22891  0.27236  1
 O  O20  1  0.26061  0.98826  0.53170  1
 O  O21  1  0.54345  0.51174  0.77236  1
 O  O22  1  0.95655  0.72891  0.96830  1
 O  O23  1  0.73939  0.01174  0.46830  1
 O  O24  1  0.53170  0.26061  0.98826  1
