CIF file written using JARVIS-Tools package.
data_PrB2ClO4
_symmetry_space_group_name_H-M  'P-1'
_cell_length_a       4.23914
_cell_length_b       6.59187
_cell_length_c       8.08637
_cell_angle_alpha    97.8199
_cell_angle_beta     89.0601
_cell_angle_gamma    107.978

_symmetry_Int_Tables_number  2
_chemical_formula_structural  PrB2ClO4
_chemical_formula_sum  Pr2B4Cl2O8
_cell_volume  212.8541391867631
_cell_formula_units_Z  2
loop_
  _symmetry_equiv_pos_site_id
 _symmetry_equiv_pos_as_xyz
 1  'x, y, z'
loop_
 _atom_site_type_symbol
 _atom_site_label
 _atom_site_symmetry_multiplicity
 _atom_site_fract_x
 _atom_site_fract_y
 _atom_site_fract_z
 _atom_site_fract_occupancy
 B  B1  1  0.16826  0.65010  0.85287  1
 B  B2  1  0.56457  0.43546  0.80501  1
 B  B3  1  0.43543  0.56454  0.19499  1
 B  B4  1  0.83174  0.34990  0.14713  1
 Cl  Cl1  1  0.14410  0.79560  0.54117  1
 Cl  Cl2  1  0.85590  0.20440  0.45883  1
 O  O1  1  0.63389  0.76652  0.21065  1
 O  O2  1  0.09704  0.53738  0.17632  1
 O  O3  1  0.83730  0.15299  0.07909  1
 O  O4  1  0.36611  0.23348  0.78935  1
 O  O5  1  0.90296  0.46262  0.82368  1
 O  O6  1  0.16270  0.84701  0.92091  1
 O  O7  1  0.48131  0.62610  0.81691  1
 O  O8  1  0.51869  0.37390  0.18309  1
 Pr  Pr1  1  0.78732  0.02984  0.77776  1
 Pr  Pr2  1  0.21268  0.97016  0.22224  1
