CIF file written using JARVIS-Tools package.
data_NiPtF6
_symmetry_space_group_name_H-M  'R-3'
_cell_length_a       5.39044
_cell_length_b       5.39043
_cell_length_c       5.39044
_cell_angle_alpha    54.2235
_cell_angle_beta     54.2235
_cell_angle_gamma    54.2235

_symmetry_Int_Tables_number  148
_chemical_formula_structural  NiPtF6
_chemical_formula_sum  NiPtF6
_cell_volume  95.82210876236387
_cell_formula_units_Z  1
loop_
  _symmetry_equiv_pos_site_id
 _symmetry_equiv_pos_as_xyz
 1  'x, y, z'
loop_
 _atom_site_type_symbol
 _atom_site_label
 _atom_site_symmetry_multiplicity
 _atom_site_fract_x
 _atom_site_fract_y
 _atom_site_fract_z
 _atom_site_fract_occupancy
 F  F1  1  0.90871  0.25150  0.58994  1
 F  F2  1  0.25150  0.58994  0.90871  1
 F  F3  1  0.41006  0.09129  0.74850  1
 F  F4  1  0.74850  0.41006  0.09129  1
 F  F5  1  0.09129  0.74850  0.41006  1
 F  F6  1  0.58994  0.90871  0.25150  1
 Ni  Ni1  1  0.00000  0.00000  0.00000  1
 Pt  Pt1  1  0.50000  0.50000  0.50000  1
