CIF file written using JARVIS-Tools package.
data_KClO3
_symmetry_space_group_name_H-M  'P2_1/m'
_cell_length_a       4.63095
_cell_length_b       5.58285
_cell_length_c       7.00293
_cell_angle_alpha    90
_cell_angle_beta     111.171
_cell_angle_gamma    90

_symmetry_Int_Tables_number  11
_chemical_formula_structural  KClO3
_chemical_formula_sum  K2Cl2O6
_cell_volume  168.83319610762953
_cell_formula_units_Z  2
loop_
  _symmetry_equiv_pos_site_id
 _symmetry_equiv_pos_as_xyz
 1  'x, y, z'
loop_
 _atom_site_type_symbol
 _atom_site_label
 _atom_site_symmetry_multiplicity
 _atom_site_fract_x
 _atom_site_fract_y
 _atom_site_fract_z
 _atom_site_fract_occupancy
 Cl  Cl1  1  0.87928  0.25000  0.82847  1
 Cl  Cl2  1  0.12072  0.75000  0.17153  1
 K  K1  1  0.64324  0.25000  0.29194  1
 K  K2  1  0.35676  0.75000  0.70806  1
 O  O1  1  0.14315  0.96597  0.30415  1
 O  O2  1  0.85685  0.46597  0.69585  1
 O  O3  1  0.85685  0.03403  0.69585  1
 O  O4  1  0.14315  0.53403  0.30415  1
 O  O5  1  0.40730  0.75000  0.11814  1
 O  O6  1  0.59270  0.25000  0.88186  1
