CIF file written using JARVIS-Tools package.
data_Nb2P5
_symmetry_space_group_name_H-M  'Pnma'
_cell_length_a       3.40007
_cell_length_b       7.99637
_cell_length_c       16.8889
_cell_angle_alpha    90
_cell_angle_beta     90
_cell_angle_gamma    90

_symmetry_Int_Tables_number  62
_chemical_formula_structural  Nb2P5
_chemical_formula_sum  Nb8P20
_cell_volume  459.1793292980348
_cell_formula_units_Z  4
loop_
  _symmetry_equiv_pos_site_id
 _symmetry_equiv_pos_as_xyz
 1  'x, y, z'
loop_
 _atom_site_type_symbol
 _atom_site_label
 _atom_site_symmetry_multiplicity
 _atom_site_fract_x
 _atom_site_fract_y
 _atom_site_fract_z
 _atom_site_fract_occupancy
 Nb  Nb1  1  0.25000  0.32770  0.77341  1
 Nb  Nb2  1  0.75000  0.67230  0.22659  1
 Nb  Nb3  1  0.75000  0.82770  0.72659  1
 Nb  Nb4  1  0.25000  0.17230  0.27341  1
 Nb  Nb5  1  0.25000  0.33609  0.59464  1
 Nb  Nb6  1  0.75000  0.66391  0.40536  1
 Nb  Nb7  1  0.75000  0.83609  0.90536  1
 Nb  Nb8  1  0.25000  0.16391  0.09464  1
 P  P1  1  0.75000  0.50528  0.68424  1
 P  P2  1  0.25000  0.62237  0.52268  1
 P  P3  1  0.25000  0.00528  0.81576  1
 P  P4  1  0.75000  0.15297  0.68481  1
 P  P5  1  0.25000  0.65297  0.81519  1
 P  P6  1  0.25000  0.84703  0.31519  1
 P  P7  1  0.25000  0.49472  0.31576  1
 P  P8  1  0.75000  0.34703  0.18481  1
 P  P9  1  0.75000  0.99472  0.18424  1
 P  P10  1  0.75000  0.12237  0.97732  1
 P  P11  1  0.25000  0.68234  0.11599  1
 P  P12  1  0.75000  0.96133  0.45980  1
 P  P13  1  0.25000  0.46133  0.04020  1
 P  P14  1  0.75000  0.31766  0.88401  1
 P  P15  1  0.25000  0.87763  0.02268  1
 P  P16  1  0.25000  0.81766  0.61599  1
 P  P17  1  0.75000  0.18234  0.38401  1
 P  P18  1  0.25000  0.03867  0.54020  1
 P  P19  1  0.75000  0.53867  0.95980  1
 P  P20  1  0.75000  0.37763  0.47732  1
