CIF file written using JARVIS-Tools package.
data_CaTi4Cu3O12
_symmetry_space_group_name_H-M  'Im-3'
_cell_length_a       6.44745
_cell_length_b       6.44745
_cell_length_c       6.44745
_cell_angle_alpha    109.471
_cell_angle_beta     109.471
_cell_angle_gamma    109.471

_symmetry_Int_Tables_number  204
_chemical_formula_structural  CaTi4Cu3O12
_chemical_formula_sum  CaTi4Cu3O2
_cell_volume  206.32005916477345
_cell_formula_units_Z  1
loop_
  _symmetry_equiv_pos_site_id
 _symmetry_equiv_pos_as_xyz
 1  'x, y, z'
loop_
 _atom_site_type_symbol
 _atom_site_label
 _atom_site_symmetry_multiplicity
 _atom_site_fract_x
 _atom_site_fract_y
 _atom_site_fract_z
 _atom_site_fract_occupancy
 Ca  Ca1  1  0.00000  0.00000  0.00000  1
 Cu  Cu1  1  0.50000  0.00000  0.50000  1
 Cu  Cu2  1  0.50000  0.50000  -0.00000  1
 Cu  Cu3  1  0.00000  0.50000  0.50000  1
 O  O1  1  0.17694  0.69727  0.87421  1
 O  O2  1  0.82306  0.69727  0.52033  1
 O  O3  1  0.30273  0.47967  0.17694  1
 O  O4  1  0.47967  0.17694  0.30273  1
 O  O5  1  0.12579  0.82306  0.30273  1
 O  O6  1  0.69727  0.87421  0.17694  1
 O  O7  1  0.52033  0.82306  0.69727  1
 O  O8  1  0.87421  0.17694  0.69727  1
 O  O9  1  0.17694  0.30273  0.47967  1
 O  O10  1  0.30273  0.12579  0.82306  1
 O  O11  1  0.82306  0.30273  0.12579  1
 O  O12  1  0.69727  0.52033  0.82306  1
 Ti  Ti1  1  0.00000  0.00000  0.50000  1
 Ti  Ti2  1  0.00000  0.50000  -0.00000  1
 Ti  Ti3  1  0.50000  0.50000  0.50000  1
 Ti  Ti4  1  0.50000  0.00000  -0.00000  1
