CIF file written using JARVIS-Tools package.
data_HgF2
_symmetry_space_group_name_H-M  'P4_2/mnm'
_cell_length_a       4.97655
_cell_length_b       4.97655
_cell_length_c       4.18686
_cell_angle_alpha    90
_cell_angle_beta     90
_cell_angle_gamma    90

_symmetry_Int_Tables_number  136
_chemical_formula_structural  HgF2
_chemical_formula_sum  Hg2F4
_cell_volume  103.6920090367954
_cell_formula_units_Z  2
loop_
  _symmetry_equiv_pos_site_id
 _symmetry_equiv_pos_as_xyz
 1  'x, y, z'
loop_
 _atom_site_type_symbol
 _atom_site_label
 _atom_site_symmetry_multiplicity
 _atom_site_fract_x
 _atom_site_fract_y
 _atom_site_fract_z
 _atom_site_fract_occupancy
 F  F1  1  0.29786  0.29786  0.00000  1
 F  F2  1  0.70214  0.70214  0.00000  1
 F  F3  1  0.20214  0.79786  0.50000  1
 F  F4  1  0.79786  0.20214  0.50000  1
 Hg  Hg1  1  0.00000  0.00000  0.00000  1
 Hg  Hg2  1  0.50000  0.50000  0.50000  1
