CIF file written using JARVIS-Tools package.
data_GePt2
_symmetry_space_group_name_H-M  'P-62m'
_cell_length_a       6.85084
_cell_length_b       6.85084
_cell_length_c       3.5423
_cell_angle_alpha    90
_cell_angle_beta     90
_cell_angle_gamma    120

_symmetry_Int_Tables_number  189
_chemical_formula_structural  GePt2
_chemical_formula_sum  Ge3Pt6
_cell_volume  143.98053582282907
_cell_formula_units_Z  3
loop_
  _symmetry_equiv_pos_site_id
 _symmetry_equiv_pos_as_xyz
 1  'x, y, z'
loop_
 _atom_site_type_symbol
 _atom_site_label
 _atom_site_symmetry_multiplicity
 _atom_site_fract_x
 _atom_site_fract_y
 _atom_site_fract_z
 _atom_site_fract_occupancy
 Ge  Ge1  1  0.66667  0.33333  0.00000  1
 Ge  Ge2  1  0.33333  0.66667  0.00000  1
 Ge  Ge3  1  0.00000  0.00000  0.50000  1
 Pt  Pt1  1  0.62640  0.00000  0.50000  1
 Pt  Pt2  1  0.37360  0.37360  0.50000  1
 Pt  Pt3  1  0.00000  0.62640  0.50000  1
 Pt  Pt4  1  0.00000  0.28875  0.00000  1
 Pt  Pt5  1  0.71125  0.71125  0.00000  1
 Pt  Pt6  1  0.28875  0.00000  0.00000  1
