CIF file written using JARVIS-Tools package.
data_Pd2Cl2O
_symmetry_space_group_name_H-M  'I4_1/amd'
_cell_length_a       6.41952
_cell_length_b       6.41952
_cell_length_c       6.67859
_cell_angle_alpha    118.725
_cell_angle_beta     118.725
_cell_angle_gamma    90

_symmetry_Int_Tables_number  141
_chemical_formula_structural  Pd2Cl2O
_chemical_formula_sum  Pd4Cl4O2
_cell_volume  201.88158394225522
_cell_formula_units_Z  2
loop_
  _symmetry_equiv_pos_site_id
 _symmetry_equiv_pos_as_xyz
 1  'x, y, z'
loop_
 _atom_site_type_symbol
 _atom_site_label
 _atom_site_symmetry_multiplicity
 _atom_site_fract_x
 _atom_site_fract_y
 _atom_site_fract_z
 _atom_site_fract_occupancy
 Cl  Cl1  1  0.57353  0.82353  0.14705  1
 Cl  Cl2  1  0.82353  0.57353  0.64705  1
 Cl  Cl3  1  0.17647  0.42647  0.35295  1
 Cl  Cl4  1  0.42647  0.17647  0.85295  1
 O  O1  1  0.87500  0.12500  0.75000  1
 O  O2  1  0.12500  0.87500  0.25000  1
 Pd  Pd1  1  -0.00000  0.50000  0.00000  1
 Pd  Pd2  1  -0.00000  -0.00000  0.50000  1
 Pd  Pd3  1  0.50000  -0.00000  0.50000  1
 Pd  Pd4  1  0.00000  0.00000  0.00000  1
