CIF file written using JARVIS-Tools package.
data_PrF3
_symmetry_space_group_name_H-M  'P-3c1'
_cell_length_a       7.11048
_cell_length_b       7.11048
_cell_length_c       7.30476
_cell_angle_alpha    90
_cell_angle_beta     90
_cell_angle_gamma    120

_symmetry_Int_Tables_number  165
_chemical_formula_structural  PrF3
_chemical_formula_sum  Pr6F8
_cell_volume  319.8413813637106
_cell_formula_units_Z  6
loop_
  _symmetry_equiv_pos_site_id
 _symmetry_equiv_pos_as_xyz
 1  'x, y, z'
loop_
 _atom_site_type_symbol
 _atom_site_label
 _atom_site_symmetry_multiplicity
 _atom_site_fract_x
 _atom_site_fract_y
 _atom_site_fract_z
 _atom_site_fract_occupancy
 F  F1  1  0.31040  0.94009  0.41870  1
 F  F2  1  0.00000  0.00000  0.75000  1
 F  F3  1  0.00000  0.00000  0.25000  1
 F  F4  1  0.33333  0.66667  0.67975  1
 F  F5  1  0.66667  0.33333  0.82025  1
 F  F6  1  0.66667  0.33333  0.32025  1
 F  F7  1  0.68960  0.05991  0.58130  1
 F  F8  1  0.94009  0.31040  0.08130  1
 F  F9  1  0.33333  0.66667  0.17975  1
 F  F10  1  0.37031  0.05991  0.08130  1
 F  F11  1  0.05991  0.37031  0.41870  1
 F  F12  1  0.37031  0.31040  0.58130  1
 F  F13  1  0.62969  0.68960  0.41870  1
 F  F14  1  0.05991  0.68960  0.91870  1
 F  F15  1  0.31040  0.37031  0.91870  1
 F  F16  1  0.62969  0.94009  0.91870  1
 F  F17  1  0.94009  0.62969  0.58130  1
 F  F18  1  0.68960  0.62969  0.08130  1
 Pr  Pr1  1  0.00000  0.65653  0.25000  1
 Pr  Pr2  1  0.34347  0.34347  0.25000  1
 Pr  Pr3  1  0.65653  0.00000  0.25000  1
 Pr  Pr4  1  -0.00000  0.34347  0.75000  1
 Pr  Pr5  1  0.65653  0.65653  0.75000  1
 Pr  Pr6  1  0.34347  -0.00000  0.75000  1
