CIF file written using JARVIS-Tools package.
data_AlAu
_symmetry_space_group_name_H-M  'Pnma'
_cell_length_a       6.26166
_cell_length_b       3.59864
_cell_length_c       6.30301
_cell_angle_alpha    90
_cell_angle_beta     90.0126
_cell_angle_gamma    90

_symmetry_Int_Tables_number  62
_chemical_formula_structural  AlAu
_chemical_formula_sum  Al4Au4
_cell_volume  142.02875867884737
_cell_formula_units_Z  4
loop_
  _symmetry_equiv_pos_site_id
 _symmetry_equiv_pos_as_xyz
 1  'x, y, z'
loop_
 _atom_site_type_symbol
 _atom_site_label
 _atom_site_symmetry_multiplicity
 _atom_site_fract_x
 _atom_site_fract_y
 _atom_site_fract_z
 _atom_site_fract_occupancy
 Al  Al1  1  0.42526  0.25000  0.18014  1
 Al  Al2  1  0.57474  0.75000  0.81986  1
 Al  Al3  1  0.07487  0.25000  0.68016  1
 Al  Al4  1  0.92513  0.75000  0.31984  1
 Au  Au1  1  0.69046  0.25000  0.50800  1
 Au  Au2  1  0.30954  0.75000  0.49200  1
 Au  Au3  1  0.80957  0.25000  0.00789  1
 Au  Au4  1  0.19043  0.75000  -0.00789  1
