CIF file written using JARVIS-Tools package.
data_BaFe2P2O7F2
_symmetry_space_group_name_H-M  'Pmmn'
_cell_length_a       4.58758
_cell_length_b       6.92916
_cell_length_c       11.8444
_cell_angle_alpha    90
_cell_angle_beta     90
_cell_angle_gamma    90

_symmetry_Int_Tables_number  59
_chemical_formula_structural  BaFe2P2O7F2
_chemical_formula_sum  Ba2Fe4P4O4F4
_cell_volume  376.51084435396234
_cell_formula_units_Z  2
loop_
  _symmetry_equiv_pos_site_id
 _symmetry_equiv_pos_as_xyz
 1  'x, y, z'
loop_
 _atom_site_type_symbol
 _atom_site_label
 _atom_site_symmetry_multiplicity
 _atom_site_fract_x
 _atom_site_fract_y
 _atom_site_fract_z
 _atom_site_fract_occupancy
 Ba  Ba1  1  0.38163  0.00000  0.00000  1
 Ba  Ba2  1  0.61837  0.50000  0.50000  1
 F  F1  1  0.13576  0.50000  0.63545  1
 F  F2  1  0.86424  0.00000  0.86455  1
 F  F3  1  0.13576  0.50000  0.36455  1
 F  F4  1  0.86424  0.00000  0.13545  1
 Fe  Fe1  1  0.00000  0.75000  0.75000  1
 Fe  Fe2  1  0.00000  0.25000  0.75000  1
 Fe  Fe3  1  0.00000  0.25000  0.25000  1
 Fe  Fe4  1  0.00000  0.75000  0.25000  1
 O  O1  1  0.69357  0.18413  0.36584  1
 O  O2  1  0.69357  0.18413  0.63416  1
 O  O3  1  0.75065  0.50000  0.20420  1
 O  O4  1  0.30643  0.68413  0.13416  1
 O  O5  1  0.69357  0.81587  0.63416  1
 O  O6  1  0.69357  0.81587  0.36584  1
 O  O7  1  0.24935  0.00000  0.29580  1
 O  O8  1  0.63266  0.50000  0.00000  1
 O  O9  1  0.30643  0.31587  0.13416  1
 O  O10  1  0.30643  0.68413  0.86584  1
 O  O11  1  0.36734  0.00000  0.50000  1
 O  O12  1  0.75065  0.50000  0.79580  1
 O  O13  1  0.24935  0.00000  0.70420  1
 O  O14  1  0.30643  0.31587  0.86584  1
 P  P1  1  0.48757  0.50000  0.12513  1
 P  P2  1  0.51243  0.00000  0.62513  1
 P  P3  1  0.48757  0.50000  0.87487  1
 P  P4  1  0.51243  0.00000  0.37487  1
