CIF file written using JARVIS-Tools package.
data_Cr3WO8
_symmetry_space_group_name_H-M  'P6_3mc'
_cell_length_a       5.88272
_cell_length_b       5.88272
_cell_length_c       9.08212
_cell_angle_alpha    90
_cell_angle_beta     90
_cell_angle_gamma    120

_symmetry_Int_Tables_number  186
_chemical_formula_structural  Cr3WO8
_chemical_formula_sum  Cr6W2O6
_cell_volume  272.1909454394906
_cell_formula_units_Z  2
loop_
  _symmetry_equiv_pos_site_id
 _symmetry_equiv_pos_as_xyz
 1  'x, y, z'
loop_
 _atom_site_type_symbol
 _atom_site_label
 _atom_site_symmetry_multiplicity
 _atom_site_fract_x
 _atom_site_fract_y
 _atom_site_fract_z
 _atom_site_fract_occupancy
 Cr  Cr1  1  0.82999  0.65998  0.78532  1
 Cr  Cr2  1  0.82999  0.17001  0.78532  1
 Cr  Cr3  1  0.34002  0.17001  0.78532  1
 Cr  Cr4  1  0.65998  0.82999  0.28532  1
 Cr  Cr5  1  0.17001  0.82999  0.28532  1
 Cr  Cr6  1  0.17001  0.34002  0.28532  1
 O  O1  1  0.82691  0.65382  0.40314  1
 O  O2  1  0.95478  0.47739  0.65949  1
 O  O3  1  0.66667  0.33333  0.89324  1
 O  O4  1  0.04522  0.52261  0.15949  1
 O  O5  1  0.00000  0.00000  0.20070  1
 O  O6  1  0.82691  0.17309  0.40314  1
 O  O7  1  0.00000  0.00000  0.70070  1
 O  O8  1  0.52261  0.04522  0.65949  1
 O  O9  1  0.47739  0.95478  0.15949  1
 O  O10  1  0.34618  0.17309  0.40314  1
 O  O11  1  0.52261  0.47739  0.65949  1
 O  O12  1  0.47739  0.52261  0.15949  1
 O  O13  1  0.33333  0.66667  0.39324  1
 O  O14  1  0.17309  0.82691  0.90314  1
 O  O15  1  0.65382  0.82691  0.90314  1
 O  O16  1  0.17309  0.34618  0.90314  1
 W  W1  1  0.33333  0.66667  0.00436  1
 W  W2  1  0.66667  0.33333  0.50436  1
