CIF file written using JARVIS-Tools package.
data_YbSnPd
_symmetry_space_group_name_H-M  'Pnma'
_cell_length_a       4.54211
_cell_length_b       7.13444
_cell_length_c       8.163
_cell_angle_alpha    90
_cell_angle_beta     90
_cell_angle_gamma    90

_symmetry_Int_Tables_number  62
_chemical_formula_structural  YbSnPd
_chemical_formula_sum  Yb4Sn4Pd4
_cell_volume  264.52542675826226
_cell_formula_units_Z  4
loop_
  _symmetry_equiv_pos_site_id
 _symmetry_equiv_pos_as_xyz
 1  'x, y, z'
loop_
 _atom_site_type_symbol
 _atom_site_label
 _atom_site_symmetry_multiplicity
 _atom_site_fract_x
 _atom_site_fract_y
 _atom_site_fract_z
 _atom_site_fract_occupancy
 Pd  Pd1  1  0.75000  0.22840  0.11615  1
 Pd  Pd2  1  0.25000  0.27160  0.61615  1
 Pd  Pd3  1  0.75000  0.72840  0.38385  1
 Pd  Pd4  1  0.25000  0.77160  0.88385  1
 Sn  Sn1  1  0.25000  0.16190  0.93348  1
 Sn  Sn2  1  0.75000  0.33810  0.43348  1
 Sn  Sn3  1  0.25000  0.66190  0.56652  1
 Sn  Sn4  1  0.75000  0.83810  0.06652  1
 Yb  Yb1  1  0.25000  0.52805  0.18438  1
 Yb  Yb2  1  0.75000  0.47195  0.81562  1
 Yb  Yb3  1  0.25000  0.02805  0.31562  1
 Yb  Yb4  1  0.75000  0.97195  0.68438  1
