CIF file written using JARVIS-Tools package.
data_SiTePt
_symmetry_space_group_name_H-M  'Pbca'
_cell_length_a       6.24328
_cell_length_b       6.34032
_cell_length_c       12.6742
_cell_angle_alpha    90
_cell_angle_beta     90
_cell_angle_gamma    90

_symmetry_Int_Tables_number  61
_chemical_formula_structural  SiTePt
_chemical_formula_sum  Si8Te8Pt8
_cell_volume  501.7015345015555
_cell_formula_units_Z  8
loop_
  _symmetry_equiv_pos_site_id
 _symmetry_equiv_pos_as_xyz
 1  'x, y, z'
loop_
 _atom_site_type_symbol
 _atom_site_label
 _atom_site_symmetry_multiplicity
 _atom_site_fract_x
 _atom_site_fract_y
 _atom_site_fract_z
 _atom_site_fract_occupancy
 Pt  Pt1  1  0.02659  0.31480  0.61269  1
 Pt  Pt2  1  0.97341  0.81480  0.88731  1
 Pt  Pt3  1  0.47341  0.68520  0.11269  1
 Pt  Pt4  1  0.97341  0.68520  0.38731  1
 Pt  Pt5  1  0.47341  0.81480  0.61269  1
 Pt  Pt6  1  0.02659  0.18520  0.11269  1
 Pt  Pt7  1  0.52659  0.31480  0.88731  1
 Pt  Pt8  1  0.52659  0.18520  0.38731  1
 Si  Si1  1  0.87172  0.33107  0.43871  1
 Si  Si2  1  0.12828  0.83107  0.06129  1
 Si  Si3  1  0.12828  0.66893  0.56129  1
 Si  Si4  1  0.62828  0.83107  0.43871  1
 Si  Si5  1  0.87172  0.16893  0.93871  1
 Si  Si6  1  0.37172  0.33107  0.06129  1
 Si  Si7  1  0.62828  0.66893  0.93871  1
 Si  Si8  1  0.37172  0.16893  0.56129  1
 Te  Te1  1  0.11812  0.41860  0.82513  1
 Te  Te2  1  0.11812  0.08140  0.32513  1
 Te  Te3  1  0.88188  0.58140  0.17487  1
 Te  Te4  1  0.38188  0.58140  0.32513  1
 Te  Te5  1  0.88188  0.91860  0.67487  1
 Te  Te6  1  0.61812  0.08140  0.17487  1
 Te  Te7  1  0.38188  0.91860  0.82513  1
 Te  Te8  1  0.61812  0.41860  0.67487  1
