CIF file written using JARVIS-Tools package.
data_Pr3CuGeSe7
_symmetry_space_group_name_H-M  'P6_3'
_cell_length_a       10.6769
_cell_length_b       10.6769
_cell_length_c       6.15296
_cell_angle_alpha    90
_cell_angle_beta     90
_cell_angle_gamma    120

_symmetry_Int_Tables_number  173
_chemical_formula_structural  Pr3CuGeSe7
_chemical_formula_sum  Pr6Cu2Ge2Se4
_cell_volume  607.4435942924348
_cell_formula_units_Z  2
loop_
  _symmetry_equiv_pos_site_id
 _symmetry_equiv_pos_as_xyz
 1  'x, y, z'
loop_
 _atom_site_type_symbol
 _atom_site_label
 _atom_site_symmetry_multiplicity
 _atom_site_fract_x
 _atom_site_fract_y
 _atom_site_fract_z
 _atom_site_fract_occupancy
 Cu  Cu1  1  0.00000  0.00000  0.21983  1
 Cu  Cu2  1  0.00000  0.00000  0.71983  1
 Ge  Ge1  1  0.33333  0.66667  0.83096  1
 Ge  Ge2  1  0.66667  0.33333  0.33096  1
 Pr  Pr1  1  0.77489  0.13091  0.74844  1
 Pr  Pr2  1  0.35602  0.22511  0.74844  1
 Pr  Pr3  1  0.86909  0.64398  0.74844  1
 Pr  Pr4  1  0.13091  0.35602  0.24844  1
 Pr  Pr5  1  0.64398  0.77489  0.24844  1
 Pr  Pr6  1  0.22511  0.86909  0.24844  1
 Se  Se1  1  0.25700  0.16202  0.23080  1
 Se  Se2  1  0.83798  0.09498  0.23080  1
 Se  Se3  1  0.42123  0.51874  0.98903  1
 Se  Se4  1  0.66667  0.33333  0.94822  1
 Se  Se5  1  0.16202  0.90502  0.73080  1
 Se  Se6  1  0.09498  0.25700  0.73080  1
 Se  Se7  1  0.48126  0.90249  0.98903  1
 Se  Se8  1  0.51874  0.09751  0.48903  1
 Se  Se9  1  0.90249  0.42123  0.48903  1
 Se  Se10  1  0.90502  0.74300  0.23080  1
 Se  Se11  1  0.33333  0.66667  0.44822  1
 Se  Se12  1  0.74300  0.83798  0.73080  1
 Se  Se13  1  0.09751  0.57877  0.98903  1
 Se  Se14  1  0.57877  0.48126  0.48903  1
