CIF file written using JARVIS-Tools package.
data_Li2NbCr3O8
_symmetry_space_group_name_H-M  'P6_3mc'
_cell_length_a       5.90771
_cell_length_b       5.90771
_cell_length_c       9.53077
_cell_angle_alpha    90
_cell_angle_beta     90
_cell_angle_gamma    120

_symmetry_Int_Tables_number  186
_chemical_formula_structural  Li2NbCr3O8
_chemical_formula_sum  Li4Nb2Cr6O6
_cell_volume  288.07006915176345
_cell_formula_units_Z  2
loop_
  _symmetry_equiv_pos_site_id
 _symmetry_equiv_pos_as_xyz
 1  'x, y, z'
loop_
 _atom_site_type_symbol
 _atom_site_label
 _atom_site_symmetry_multiplicity
 _atom_site_fract_x
 _atom_site_fract_y
 _atom_site_fract_z
 _atom_site_fract_occupancy
 Cr  Cr1  1  0.66135  0.83068  0.21526  1
 Cr  Cr2  1  0.16932  0.83068  0.21526  1
 Cr  Cr3  1  0.16932  0.33865  0.21526  1
 Cr  Cr4  1  0.83068  0.16932  0.71526  1
 Cr  Cr5  1  0.33865  0.16932  0.71526  1
 Cr  Cr6  1  0.83068  0.66135  0.71526  1
 Li  Li1  1  0.33333  0.66667  0.90083  1
 Li  Li2  1  0.66667  0.33333  0.40083  1
 Li  Li3  1  0.00000  0.00000  0.49418  1
 Li  Li4  1  0.00000  0.00000  0.99418  1
 Nb  Nb1  1  0.33333  0.66667  0.49281  1
 Nb  Nb2  1  0.66667  0.33333  0.99281  1
 O  O1  1  0.67006  0.83503  0.59561  1
 O  O2  1  0.16497  0.32994  0.59561  1
 O  O3  1  0.51833  0.48167  0.83868  1
 O  O4  1  0.33333  0.66667  0.10814  1
 O  O5  1  0.00000  0.00000  0.30933  1
 O  O6  1  0.00000  0.00000  0.80933  1
 O  O7  1  0.48167  0.51833  0.33868  1
 O  O8  1  0.32994  0.16497  0.09561  1
 O  O9  1  0.16497  0.83503  0.59561  1
 O  O10  1  0.51833  0.03667  0.83868  1
 O  O11  1  0.96333  0.48167  0.83868  1
 O  O12  1  0.66667  0.33333  0.60814  1
 O  O13  1  0.03667  0.51833  0.33868  1
 O  O14  1  0.83503  0.16497  0.09561  1
 O  O15  1  0.48167  0.96333  0.33868  1
 O  O16  1  0.83503  0.67006  0.09561  1
