CIF file written using JARVIS-Tools package.
data_HoTeClO3
_symmetry_space_group_name_H-M  'Pnma'
_cell_length_a       6.96079
_cell_length_b       7.21589
_cell_length_c       9.11369
_cell_angle_alpha    90
_cell_angle_beta     90
_cell_angle_gamma    90

_symmetry_Int_Tables_number  62
_chemical_formula_structural  HoTeClO3
_chemical_formula_sum  Ho4Te4Cl4O2
_cell_volume  457.7649962958891
_cell_formula_units_Z  4
loop_
  _symmetry_equiv_pos_site_id
 _symmetry_equiv_pos_as_xyz
 1  'x, y, z'
loop_
 _atom_site_type_symbol
 _atom_site_label
 _atom_site_symmetry_multiplicity
 _atom_site_fract_x
 _atom_site_fract_y
 _atom_site_fract_z
 _atom_site_fract_occupancy
 Cl  Cl1  1  0.25000  0.43896  0.68479  1
 Cl  Cl2  1  0.25000  0.93896  0.81521  1
 Cl  Cl3  1  0.75000  0.06104  0.18479  1
 Cl  Cl4  1  0.75000  0.56104  0.31521  1
 Ho  Ho1  1  0.25000  0.59208  0.96350  1
 Ho  Ho2  1  0.25000  0.09208  0.53650  1
 Ho  Ho3  1  0.75000  0.90792  0.46350  1
 Ho  Ho4  1  0.75000  0.40792  0.03650  1
 O  O1  1  0.75000  0.75903  0.67184  1
 O  O2  1  0.93425  0.15040  0.56222  1
 O  O3  1  0.56575  0.15040  0.56222  1
 O  O4  1  0.43425  0.84960  0.43778  1
 O  O5  1  0.06575  0.34960  0.06222  1
 O  O6  1  0.43425  0.34960  0.06222  1
 O  O7  1  0.93425  0.65040  0.93778  1
 O  O8  1  0.06575  0.84960  0.43778  1
 O  O9  1  0.25000  0.74097  0.17184  1
 O  O10  1  0.25000  0.24097  0.32816  1
 O  O11  1  0.75000  0.25903  0.82816  1
 O  O12  1  0.56575  0.65040  0.93778  1
 Te  Te1  1  0.75000  0.82742  0.87028  1
 Te  Te2  1  0.25000  0.17258  0.12972  1
 Te  Te3  1  0.75000  0.32742  0.62972  1
 Te  Te4  1  0.25000  0.67258  0.37028  1
