CIF file written using JARVIS-Tools package.
data_KIn9Co2
_symmetry_space_group_name_H-M  'P6/mmm'
_cell_length_a       8.84279
_cell_length_b       8.84279
_cell_length_c       4.27877
_cell_angle_alpha    90
_cell_angle_beta     90
_cell_angle_gamma    120

_symmetry_Int_Tables_number  191
_chemical_formula_structural  KIn9Co2
_chemical_formula_sum  KIn9Co2
_cell_volume  289.75262158724075
_cell_formula_units_Z  1
loop_
  _symmetry_equiv_pos_site_id
 _symmetry_equiv_pos_as_xyz
 1  'x, y, z'
loop_
 _atom_site_type_symbol
 _atom_site_label
 _atom_site_symmetry_multiplicity
 _atom_site_fract_x
 _atom_site_fract_y
 _atom_site_fract_z
 _atom_site_fract_occupancy
 Co  Co1  1  0.66667  0.33333  0.00000  1
 Co  Co2  1  0.33333  0.66667  0.00000  1
 In  In1  1  0.79182  0.20818  0.50000  1
 In  In2  1  0.50000  -0.00000  0.00000  1
 In  In3  1  0.50000  0.50000  0.00000  1
 In  In4  1  0.41636  0.20818  0.50000  1
 In  In5  1  0.20818  0.79182  0.50000  1
 In  In6  1  0.20818  0.41636  0.50000  1
 In  In7  1  0.58364  0.79182  0.50000  1
 In  In8  1  0.00000  0.50000  0.00000  1
 In  In9  1  0.79182  0.58364  0.50000  1
 K  K1  1  0.00000  0.00000  0.00000  1
