CIF file written using JARVIS-Tools package.
data_RbTlBr3
_symmetry_space_group_name_H-M  'R3c'
_cell_length_a       7.94809
_cell_length_b       7.94809
_cell_length_c       7.94809
_cell_angle_alpha    62.1533
_cell_angle_beta     62.1533
_cell_angle_gamma    62.1533

_symmetry_Int_Tables_number  161
_chemical_formula_structural  RbTlBr3
_chemical_formula_sum  Rb2Tl2Br6
_cell_volume  372.117448588224
_cell_formula_units_Z  2
loop_
  _symmetry_equiv_pos_site_id
 _symmetry_equiv_pos_as_xyz
 1  'x, y, z'
loop_
 _atom_site_type_symbol
 _atom_site_label
 _atom_site_symmetry_multiplicity
 _atom_site_fract_x
 _atom_site_fract_y
 _atom_site_fract_z
 _atom_site_fract_occupancy
 Br  Br1  1  0.25159  0.83226  0.67744  1
 Br  Br2  1  0.83226  0.67744  0.25159  1
 Br  Br3  1  0.67744  0.25159  0.83226  1
 Br  Br4  1  0.17744  0.33226  0.75159  1
 Br  Br5  1  0.75159  0.17744  0.33226  1
 Br  Br6  1  0.33226  0.75159  0.17744  1
 Rb  Rb1  1  0.26169  0.26169  0.26169  1
 Rb  Rb2  1  0.76169  0.76169  0.76169  1
 Tl  Tl1  1  0.00552  0.00552  0.00552  1
 Tl  Tl2  1  0.50552  0.50552  0.50552  1
