CIF file written using JARVIS-Tools package.
data_TiZnPO5
_symmetry_space_group_name_H-M  'P-1'
_cell_length_a       5.16321
_cell_length_b       5.60566
_cell_length_c       7.17142
_cell_angle_alpha    105.559
_cell_angle_beta     106.577
_cell_angle_gamma    100.001

_symmetry_Int_Tables_number  2
_chemical_formula_structural  TiZnPO5
_chemical_formula_sum  Ti2Zn2P2O0
_cell_volume  184.4768951867203
_cell_formula_units_Z  2
loop_
  _symmetry_equiv_pos_site_id
 _symmetry_equiv_pos_as_xyz
 1  'x, y, z'
loop_
 _atom_site_type_symbol
 _atom_site_label
 _atom_site_symmetry_multiplicity
 _atom_site_fract_x
 _atom_site_fract_y
 _atom_site_fract_z
 _atom_site_fract_occupancy
 O  O1  1  0.57443  0.63924  0.84815  1
 O  O2  1  0.75976  0.76546  0.58866  1
 O  O3  1  0.42463  0.36144  0.15176  1
 O  O4  1  0.23931  0.23526  0.41126  1
 O  O5  1  0.17014  0.64371  0.34123  1
 O  O6  1  0.89767  0.22624  0.06703  1
 O  O7  1  0.82893  0.35699  0.65867  1
 O  O8  1  0.10139  0.77446  0.93290  1
 O  O9  1  0.62109  0.94398  0.26300  1
 O  O10  1  0.37799  0.05670  0.73691  1
 P  P1  1  0.82022  0.64179  0.75994  1
 P  P2  1  0.17885  0.35891  0.23998  1
 Ti  Ti1  1  0.49953  0.00035  0.49995  1
 Ti  Ti2  1  0.49953  0.00034  -0.00004  1
 Zn  Zn1  1  0.21814  0.33870  0.71680  1
 Zn  Zn2  1  0.78092  0.66197  0.28312  1
