CIF file written using JARVIS-Tools package.
data_Fe3Mo3N
_symmetry_space_group_name_H-M  'Fd-3m'
_cell_length_a       7.77524
_cell_length_b       7.77524
_cell_length_c       7.77523
_cell_angle_alpha    60
_cell_angle_beta     60
_cell_angle_gamma    60

_symmetry_Int_Tables_number  227
_chemical_formula_structural  Fe3Mo3N
_chemical_formula_sum  Fe2Mo2N4
_cell_volume  332.37273403085993
_cell_formula_units_Z  4
loop_
  _symmetry_equiv_pos_site_id
 _symmetry_equiv_pos_as_xyz
 1  'x, y, z'
loop_
 _atom_site_type_symbol
 _atom_site_label
 _atom_site_symmetry_multiplicity
 _atom_site_fract_x
 _atom_site_fract_y
 _atom_site_fract_z
 _atom_site_fract_occupancy
 Fe  Fe1  1  0.29800  0.60599  0.29800  1
 Fe  Fe2  1  0.50000  0.00000  0.50000  1
 Fe  Fe3  1  0.50000  0.50000  0.50000  1
 Fe  Fe4  1  0.50000  0.50000  0.00000  1
 Fe  Fe5  1  0.70200  0.70200  0.39401  1
 Fe  Fe6  1  0.29800  0.29800  0.29800  1
 Fe  Fe7  1  0.00000  0.50000  0.50000  1
 Fe  Fe8  1  0.70200  0.39401  0.70200  1
 Fe  Fe9  1  0.60599  0.29800  0.29800  1
 Fe  Fe10  1  0.29800  0.29800  0.60599  1
 Fe  Fe11  1  0.70200  0.70200  0.70200  1
 Fe  Fe12  1  0.39401  0.70200  0.70200  1
 Mo  Mo1  1  0.32838  0.92162  0.92162  1
 Mo  Mo2  1  0.07838  0.07838  0.67162  1
 Mo  Mo3  1  0.07838  0.67162  0.67162  1
 Mo  Mo4  1  0.92162  0.32838  0.32838  1
 Mo  Mo5  1  0.67162  0.67162  0.07838  1
 Mo  Mo6  1  0.67162  0.07838  0.07838  1
 Mo  Mo7  1  0.32838  0.32838  0.92162  1
 Mo  Mo8  1  0.92162  0.32838  0.92162  1
 Mo  Mo9  1  0.92162  0.92162  0.32838  1
 Mo  Mo10  1  0.32838  0.92162  0.32838  1
 Mo  Mo11  1  0.67162  0.07838  0.67162  1
 Mo  Mo12  1  0.07838  0.67162  0.07838  1
 N  N1  1  0.00000  0.00000  0.50000  1
 N  N2  1  0.00000  0.50000  0.00000  1
 N  N3  1  0.50000  0.00000  0.00000  1
 N  N4  1  0.00000  0.00000  0.00000  1
