CIF file written using JARVIS-Tools package.
data_Li2MnSnO4
_symmetry_space_group_name_H-M  'Imma'
_cell_length_a       6.10622
_cell_length_b       6.10623
_cell_length_c       6.20928
_cell_angle_alpha    120.562
_cell_angle_beta     120.562
_cell_angle_gamma    90.6763

_symmetry_Int_Tables_number  74
_chemical_formula_structural  Li2MnSnO4
_chemical_formula_sum  Li4Mn2Sn2O8
_cell_volume  159.8437454063323
_cell_formula_units_Z  2
loop_
  _symmetry_equiv_pos_site_id
 _symmetry_equiv_pos_as_xyz
 1  'x, y, z'
loop_
 _atom_site_type_symbol
 _atom_site_label
 _atom_site_symmetry_multiplicity
 _atom_site_fract_x
 _atom_site_fract_y
 _atom_site_fract_z
 _atom_site_fract_occupancy
 Li  Li1  1  -0.00000  0.50000  0.50000  1
 Li  Li2  1  0.50000  0.50000  0.50000  1
 Li  Li3  1  0.50000  0.00000  0.00000  1
 Li  Li4  1  0.50000  0.50000  0.00000  1
 Mn  Mn1  1  0.00000  0.50000  0.00000  1
 Mn  Mn2  1  0.50000  0.00000  0.50000  1
 O  O1  1  0.24286  0.75708  0.02064  1
 O  O2  1  0.26440  0.23825  0.50133  1
 O  O3  1  0.24292  0.75714  0.47936  1
 O  O4  1  0.76175  0.73560  -0.00133  1
 O  O5  1  0.23825  0.26440  0.00133  1
 O  O6  1  0.75708  0.24286  0.52064  1
 O  O7  1  0.73560  0.76175  0.49867  1
 O  O8  1  0.75714  0.24292  0.97936  1
 Sn  Sn1  1  -0.00000  0.00000  0.50000  1
 Sn  Sn2  1  0.00000  0.00000  0.00000  1
