CIF file written using JARVIS-Tools package.
data_NbCrO4
_symmetry_space_group_name_H-M  'Pbcn'
_cell_length_a       4.5378
_cell_length_b       4.93707
_cell_length_c       11.6459
_cell_angle_alpha    90
_cell_angle_beta     90
_cell_angle_gamma    90

_symmetry_Int_Tables_number  60
_chemical_formula_structural  NbCrO4
_chemical_formula_sum  Nb4Cr4O6
_cell_volume  260.907351881945
_cell_formula_units_Z  4
loop_
  _symmetry_equiv_pos_site_id
 _symmetry_equiv_pos_as_xyz
 1  'x, y, z'
loop_
 _atom_site_type_symbol
 _atom_site_label
 _atom_site_symmetry_multiplicity
 _atom_site_fract_x
 _atom_site_fract_y
 _atom_site_fract_z
 _atom_site_fract_occupancy
 Cr  Cr1  1  0.00000  0.75000  0.43421  1
 Cr  Cr2  1  0.00000  0.25000  0.56579  1
 Cr  Cr3  1  0.50000  0.25000  0.06579  1
 Cr  Cr4  1  0.50000  0.75000  0.93421  1
 Nb  Nb1  1  0.00000  0.75000  0.17080  1
 Nb  Nb2  1  0.00000  0.25000  0.82920  1
 Nb  Nb3  1  0.50000  0.75000  0.67080  1
 Nb  Nb4  1  0.50000  0.25000  0.32920  1
 O  O1  1  0.76945  0.57984  0.31052  1
 O  O2  1  0.76945  0.07984  0.68948  1
 O  O3  1  0.73733  0.58066  0.05889  1
 O  O4  1  0.23055  0.42016  0.68948  1
 O  O5  1  0.76267  0.08066  0.44111  1
 O  O6  1  0.76267  0.58066  0.55889  1
 O  O7  1  0.73733  0.08066  0.94111  1
 O  O8  1  0.23733  0.41934  0.44111  1
 O  O9  1  0.26945  0.42016  0.18948  1
 O  O10  1  0.26945  0.92016  0.81052  1
 O  O11  1  0.73055  0.07984  0.18948  1
 O  O12  1  0.23733  0.91934  0.55889  1
 O  O13  1  0.26267  0.91934  0.05889  1
 O  O14  1  0.26267  0.41934  0.94111  1
 O  O15  1  0.73055  0.57984  0.81052  1
 O  O16  1  0.23055  0.92016  0.31052  1
