CIF file written using JARVIS-Tools package.
data_Y2O3
_symmetry_space_group_name_H-M  'Ia-3'
_cell_length_a       9.21851
_cell_length_b       9.21851
_cell_length_c       9.21851
_cell_angle_alpha    109.471
_cell_angle_beta     109.471
_cell_angle_gamma    109.471

_symmetry_Int_Tables_number  206
_chemical_formula_structural  Y2O3
_chemical_formula_sum  Y6O24
_cell_volume  603.0587637136449
_cell_formula_units_Z  8
loop_
  _symmetry_equiv_pos_site_id
 _symmetry_equiv_pos_as_xyz
 1  'x, y, z'
loop_
 _atom_site_type_symbol
 _atom_site_label
 _atom_site_symmetry_multiplicity
 _atom_site_fract_x
 _atom_site_fract_y
 _atom_site_fract_z
 _atom_site_fract_occupancy
 O  O1  1  0.72920  0.26079  0.77203  1
 O  O2  1  0.22797  0.27080  0.73921  1
 O  O3  1  0.27203  0.01124  0.04283  1
 O  O4  1  0.22920  0.45717  0.46841  1
 O  O5  1  0.45717  0.46841  0.22920  1
 O  O6  1  0.76079  0.03159  0.48876  1
 O  O7  1  0.27080  0.73921  0.22797  1
 O  O8  1  0.04283  0.27203  0.01124  1
 O  O9  1  0.98876  0.95717  0.72797  1
 O  O10  1  0.26079  0.77203  0.72920  1
 O  O11  1  0.01124  0.04283  0.27203  1
 O  O12  1  0.46841  0.22920  0.45717  1
 O  O13  1  0.96841  0.51124  0.23921  1
 O  O14  1  0.77203  0.72920  0.26079  1
 O  O15  1  0.72797  0.98876  0.95717  1
 O  O16  1  0.77080  0.54283  0.53159  1
 O  O17  1  0.53159  0.77080  0.54283  1
 O  O18  1  0.48876  0.76079  0.03159  1
 O  O19  1  0.03159  0.48876  0.76079  1
 O  O20  1  0.51124  0.23921  0.96841  1
 O  O21  1  0.23921  0.96841  0.51124  1
 O  O22  1  0.54283  0.53159  0.77080  1
 O  O23  1  0.95717  0.72797  0.98876  1
 O  O24  1  0.73921  0.22797  0.27080  1
 Y  Y1  1  0.25000  0.71759  0.46759  1
 Y  Y2  1  0.03241  0.75000  0.78241  1
 Y  Y3  1  0.78241  0.03241  0.75000  1
 Y  Y4  1  0.46759  0.25000  0.71759  1
 Y  Y5  1  0.71759  0.46759  0.25000  1
 Y  Y6  1  0.75000  0.28241  0.53241  1
 Y  Y7  1  0.75000  0.78241  0.03241  1
 Y  Y8  1  0.53241  0.75000  0.28241  1
 Y  Y9  1  0.28241  0.53241  0.75000  1
 Y  Y10  1  0.25000  0.21759  0.96759  1
 Y  Y11  1  -0.00000  0.50000  -0.00000  1
 Y  Y12  1  0.50000  0.00000  0.00000  1
 Y  Y13  1  0.96759  0.25000  0.21759  1
 Y  Y14  1  0.00000  0.00000  0.50000  1
 Y  Y15  1  0.21759  0.96759  0.25000  1
 Y  Y16  1  0.50000  0.50000  0.50000  1
