CIF file written using JARVIS-Tools package.
data_Si2Os
_symmetry_space_group_name_H-M  'Cmce'
_cell_length_a       6.58207
_cell_length_b       6.58207
_cell_length_c       8.32647
_cell_angle_alpha    90
_cell_angle_beta     90
_cell_angle_gamma    103.041

_symmetry_Int_Tables_number  64
_chemical_formula_structural  Si2Os
_chemical_formula_sum  Si6Os8
_cell_volume  351.428410529856
_cell_formula_units_Z  8
loop_
  _symmetry_equiv_pos_site_id
 _symmetry_equiv_pos_as_xyz
 1  'x, y, z'
loop_
 _atom_site_type_symbol
 _atom_site_label
 _atom_site_symmetry_multiplicity
 _atom_site_fract_x
 _atom_site_fract_y
 _atom_site_fract_z
 _atom_site_fract_occupancy
 Os  Os1  1  0.21653  0.78347  0.00000  1
 Os  Os2  1  0.71653  0.28347  0.50000  1
 Os  Os3  1  0.19016  0.19016  0.18301  1
 Os  Os4  1  0.30984  0.30984  0.68301  1
 Os  Os5  1  0.69016  0.69016  0.31699  1
 Os  Os6  1  0.80984  0.80984  0.81699  1
 Os  Os7  1  0.28347  0.71653  0.50000  1
 Os  Os8  1  0.78347  0.21653  0.00000  1
 Si  Si1  1  0.17789  0.92400  0.72557  1
 Si  Si2  1  0.57600  0.32211  0.22557  1
 Si  Si3  1  0.67789  0.42400  0.77443  1
 Si  Si4  1  0.82211  0.07600  0.27443  1
 Si  Si5  1  0.92400  0.17789  0.72557  1
 Si  Si6  1  0.32211  0.57600  0.22557  1
 Si  Si7  1  0.14931  0.40459  0.94273  1
 Si  Si8  1  0.59541  0.85069  0.05727  1
 Si  Si9  1  0.90459  0.64931  0.55727  1
 Si  Si10  1  0.35069  0.09541  0.44273  1
 Si  Si11  1  0.40459  0.14931  0.94273  1
 Si  Si12  1  0.09541  0.35069  0.44273  1
 Si  Si13  1  0.64931  0.90459  0.55727  1
 Si  Si14  1  0.85069  0.59541  0.05727  1
 Si  Si15  1  0.42400  0.67789  0.77443  1
 Si  Si16  1  0.07600  0.82211  0.27443  1
