CIF file written using JARVIS-Tools package.
data_BaPd
_symmetry_space_group_name_H-M  'Cmcm'
_cell_length_a       4.43468
_cell_length_b       4.70975
_cell_length_c       6.3138
_cell_angle_alpha    90
_cell_angle_beta     69.4399
_cell_angle_gamma    90

_symmetry_Int_Tables_number  63
_chemical_formula_structural  BaPd
_chemical_formula_sum  Ba2Pd2
_cell_volume  123.47181320321674
_cell_formula_units_Z  2
loop_
  _symmetry_equiv_pos_site_id
 _symmetry_equiv_pos_as_xyz
 1  'x, y, z'
loop_
 _atom_site_type_symbol
 _atom_site_label
 _atom_site_symmetry_multiplicity
 _atom_site_fract_x
 _atom_site_fract_y
 _atom_site_fract_z
 _atom_site_fract_occupancy
 Ba  Ba1  1  0.13848  0.75000  0.72304  1
 Ba  Ba2  1  0.86152  0.25000  0.27696  1
 Pd  Pd1  1  0.42758  0.75000  0.14484  1
 Pd  Pd2  1  0.57242  0.25000  0.85516  1
