CIF file written using JARVIS-Tools package.
data_DyNiSn
_symmetry_space_group_name_H-M  'Pnma'
_cell_length_a       4.47443
_cell_length_b       7.13283
_cell_length_c       7.64052
_cell_angle_alpha    90
_cell_angle_beta     90
_cell_angle_gamma    90

_symmetry_Int_Tables_number  62
_chemical_formula_structural  DyNiSn
_chemical_formula_sum  Dy4Ni4Sn4
_cell_volume  243.84986293956536
_cell_formula_units_Z  4
loop_
  _symmetry_equiv_pos_site_id
 _symmetry_equiv_pos_as_xyz
 1  'x, y, z'
loop_
 _atom_site_type_symbol
 _atom_site_label
 _atom_site_symmetry_multiplicity
 _atom_site_fract_x
 _atom_site_fract_y
 _atom_site_fract_z
 _atom_site_fract_occupancy
 Dy  Dy1  1  0.75000  0.01430  0.70127  1
 Dy  Dy2  1  0.25000  0.98570  0.29873  1
 Dy  Dy3  1  0.75000  0.51430  0.79873  1
 Dy  Dy4  1  0.25000  0.48570  0.20127  1
 Ni  Ni1  1  0.75000  0.79784  0.08416  1
 Ni  Ni2  1  0.25000  0.20216  0.91584  1
 Ni  Ni3  1  0.75000  0.29784  0.41584  1
 Ni  Ni4  1  0.25000  0.70216  0.58416  1
 Sn  Sn1  1  0.75000  0.68965  0.41238  1
 Sn  Sn2  1  0.25000  0.31035  0.58762  1
 Sn  Sn3  1  0.75000  0.18965  0.08762  1
 Sn  Sn4  1  0.25000  0.81035  0.91238  1
