CIF file written using JARVIS-Tools package.
data_BaPIr
_symmetry_space_group_name_H-M  'P2_13'
_cell_length_a       6.5492
_cell_length_b       6.5492
_cell_length_c       6.5492
_cell_angle_alpha    90
_cell_angle_beta     90
_cell_angle_gamma    90

_symmetry_Int_Tables_number  198
_chemical_formula_structural  BaPIr
_chemical_formula_sum  Ba4P4Ir4
_cell_volume  280.9078633512148
_cell_formula_units_Z  4
loop_
  _symmetry_equiv_pos_site_id
 _symmetry_equiv_pos_as_xyz
 1  'x, y, z'
loop_
 _atom_site_type_symbol
 _atom_site_label
 _atom_site_symmetry_multiplicity
 _atom_site_fract_x
 _atom_site_fract_y
 _atom_site_fract_z
 _atom_site_fract_occupancy
 Ba  Ba1  1  0.62616  0.37384  0.87384  1
 Ba  Ba2  1  0.37384  0.87384  0.62616  1
 Ba  Ba3  1  0.12616  0.12616  0.12616  1
 Ba  Ba4  1  0.87384  0.62616  0.37384  1
 Ir  Ir1  1  0.59569  0.90431  0.09569  1
 Ir  Ir2  1  0.09569  0.59569  0.90431  1
 Ir  Ir3  1  0.40431  0.40431  0.40431  1
 Ir  Ir4  1  0.90431  0.09569  0.59569  1
 P  P1  1  0.15545  0.34455  0.65545  1
 P  P2  1  0.65545  0.15545  0.34455  1
 P  P3  1  0.34455  0.65545  0.15545  1
 P  P4  1  0.84455  0.84455  0.84455  1
