CIF file written using JARVIS-Tools package.
data_Zn2AsO4
_symmetry_space_group_name_H-M  'Pbcn'
_cell_length_a       4.4041
_cell_length_b       4.38424
_cell_length_c       16.4039
_cell_angle_alpha    90
_cell_angle_beta     90.0179
_cell_angle_gamma    90

_symmetry_Int_Tables_number  60
_chemical_formula_structural  Zn2AsO4
_chemical_formula_sum  Zn8As4O6
_cell_volume  316.73768301464406
_cell_formula_units_Z  4
loop_
  _symmetry_equiv_pos_site_id
 _symmetry_equiv_pos_as_xyz
 1  'x, y, z'
loop_
 _atom_site_type_symbol
 _atom_site_label
 _atom_site_symmetry_multiplicity
 _atom_site_fract_x
 _atom_site_fract_y
 _atom_site_fract_z
 _atom_site_fract_occupancy
 As  As1  1  0.24994  0.00055  0.22120  1
 As  As2  1  0.75006  0.50055  0.27880  1
 As  As3  1  0.75006  0.99945  0.77880  1
 As  As4  1  0.24994  0.49945  0.72120  1
 O  O1  1  0.44721  0.70195  0.80123  1
 O  O2  1  0.51359  0.24449  0.93646  1
 O  O3  1  0.55279  0.29805  0.19877  1
 O  O4  1  0.48641  0.75551  0.06354  1
 O  O5  1  0.51359  0.25551  0.43646  1
 O  O6  1  -0.01365  0.75545  0.93642  1
 O  O7  1  0.01365  0.25545  0.56358  1
 O  O8  1  0.48641  0.74449  0.56354  1
 O  O9  1  -0.01365  0.74455  0.43642  1
 O  O10  1  0.05282  0.29715  0.80125  1
 O  O11  1  0.94718  0.79715  0.69875  1
 O  O12  1  0.44721  0.79805  0.30123  1
 O  O13  1  0.05282  0.20285  0.30125  1
 O  O14  1  0.01365  0.24455  0.06358  1
 O  O15  1  0.55279  0.20195  0.69877  1
 O  O16  1  0.94718  0.70285  0.19875  1
 Zn  Zn1  1  0.48439  0.75817  0.43582  1
 Zn  Zn2  1  0.51561  0.25817  0.06418  1
 Zn  Zn3  1  0.51561  0.24183  0.56418  1
 Zn  Zn4  1  0.48439  0.74183  0.93582  1
 Zn  Zn5  1  0.01547  0.24184  0.43582  1
 Zn  Zn6  1  -0.01547  0.74184  0.06418  1
 Zn  Zn7  1  -0.01547  0.75816  0.56418  1
 Zn  Zn8  1  0.01547  0.25816  0.93582  1
