CIF file written using JARVIS-Tools package.
data_LiFeP2HO8
_symmetry_space_group_name_H-M  'P2_1'
_cell_length_a       4.7577
_cell_length_b       7.99881
_cell_length_c       7.43009
_cell_angle_alpha    90
_cell_angle_beta     104.618
_cell_angle_gamma    90

_symmetry_Int_Tables_number  4
_chemical_formula_structural  LiFeP2HO8
_chemical_formula_sum  Li2Fe2P4H2O6
_cell_volume  273.60601212786463
_cell_formula_units_Z  2
loop_
  _symmetry_equiv_pos_site_id
 _symmetry_equiv_pos_as_xyz
 1  'x, y, z'
loop_
 _atom_site_type_symbol
 _atom_site_label
 _atom_site_symmetry_multiplicity
 _atom_site_fract_x
 _atom_site_fract_y
 _atom_site_fract_z
 _atom_site_fract_occupancy
 Fe  Fe1  1  0.25209  0.49927  0.76445  1
 Fe  Fe2  1  0.74791  -0.00073  0.23555  1
 H  H1  1  0.71713  0.98580  0.73670  1
 H  H2  1  0.28287  0.48580  0.26330  1
 Li  Li1  1  0.85656  0.62552  0.39662  1
 Li  Li2  1  0.14344  0.12552  0.60338  1
 O  O1  1  0.87532  0.46333  0.60352  1
 O  O2  1  0.79024  0.82551  0.05160  1
 O  O3  1  0.73611  0.17796  0.45761  1
 O  O4  1  0.00028  0.55362  0.19083  1
 O  O5  1  0.12468  0.96333  0.39648  1
 O  O6  1  0.26389  0.67796  0.54239  1
 O  O7  1  0.89367  0.16508  0.10944  1
 O  O8  1  0.10633  0.66508  0.89056  1
 O  O9  1  0.39267  0.32786  0.61481  1
 O  O10  1  0.37889  0.04815  0.11331  1
 O  O11  1  0.20976  0.32551  0.94840  1
 O  O12  1  0.99972  0.05362  0.80917  1
 O  O13  1  0.49965  0.44662  0.31621  1
 O  O14  1  0.60733  0.82786  0.38519  1
 O  O15  1  0.50035  0.94662  0.68379  1
 O  O16  1  0.62111  0.54815  0.88669  1
 P  P1  1  0.62292  0.34744  0.49885  1
 P  P2  1  0.37708  0.84744  0.50115  1
 P  P3  1  0.12055  0.14858  0.98850  1
 P  P4  1  0.87945  0.64858  0.01150  1
