CIF file written using JARVIS-Tools package.
data_K2Li14Pb3O14
_symmetry_space_group_name_H-M  'Immm'
_cell_length_a       7.269
_cell_length_b       7.98671
_cell_length_c       8.42126
_cell_angle_alpha    118.307
_cell_angle_beta     115.568
_cell_angle_gamma    90

_symmetry_Int_Tables_number  71
_chemical_formula_structural  K2Li14Pb3O14
_chemical_formula_sum  K2Li4Pb3O4
_cell_volume  375.17050393081854
_cell_formula_units_Z  1
loop_
  _symmetry_equiv_pos_site_id
 _symmetry_equiv_pos_as_xyz
 1  'x, y, z'
loop_
 _atom_site_type_symbol
 _atom_site_label
 _atom_site_symmetry_multiplicity
 _atom_site_fract_x
 _atom_site_fract_y
 _atom_site_fract_z
 _atom_site_fract_occupancy
 K  K1  1  0.24238  0.50000  0.00000  1
 K  K2  1  0.75762  0.50000  -0.00000  1
 Li  Li1  1  0.40628  0.29045  0.26691  1
 Li  Li2  1  0.13937  0.02354  0.73309  1
 Li  Li3  1  0.40628  0.97646  0.26691  1
 Li  Li4  1  0.86063  0.29045  0.26691  1
 Li  Li5  1  0.76961  0.12489  0.53921  1
 Li  Li6  1  0.23039  0.87511  0.46079  1
 Li  Li7  1  0.59372  0.70955  0.73309  1
 Li  Li8  1  0.76961  0.41432  0.53921  1
 Li  Li9  1  0.50000  0.15865  -0.00000  1
 Li  Li10  1  0.50000  0.84135  0.00000  1
 Li  Li11  1  0.59372  0.02354  0.73309  1
 Li  Li12  1  0.86063  0.97646  0.26691  1
 Li  Li13  1  0.13937  0.70955  0.73309  1
 Li  Li14  1  0.23039  0.58568  0.46079  1
 O  O1  1  0.87336  0.68223  0.74671  1
 O  O2  1  0.37396  0.59109  0.74792  1
 O  O3  1  0.62604  0.40891  0.25208  1
 O  O4  1  0.87336  0.06448  0.74671  1
 O  O5  1  0.12664  0.93552  0.25329  1
 O  O6  1  0.12664  0.31777  0.25329  1
 O  O7  1  0.29760  0.00000  0.00000  1
 O  O8  1  0.62604  0.84318  0.25208  1
 O  O9  1  0.45767  0.75152  0.50304  1
 O  O10  1  0.95463  0.24848  0.49696  1
 O  O11  1  0.54233  0.24848  0.49696  1
 O  O12  1  0.04537  0.75152  0.50304  1
 O  O13  1  0.37396  0.15682  0.74792  1
 O  O14  1  0.70240  -0.00000  -0.00000  1
 Pb  Pb1  1  0.27286  0.27286  0.54571  1
 Pb  Pb2  1  0.00000  0.00000  0.00000  1
 Pb  Pb3  1  0.72714  0.72714  0.45429  1
