CIF file written using JARVIS-Tools package.
data_Sm2PbSe4
_symmetry_space_group_name_H-M  'I-42d'
_cell_length_a       7.76139
_cell_length_b       7.7614
_cell_length_c       7.76139
_cell_angle_alpha    109.378
_cell_angle_beta     109.378
_cell_angle_gamma    109.657

_symmetry_Int_Tables_number  122
_chemical_formula_structural  Sm2PbSe4
_chemical_formula_sum  Sm4Pb2Se8
_cell_volume  359.9095103656895
_cell_formula_units_Z  2
loop_
  _symmetry_equiv_pos_site_id
 _symmetry_equiv_pos_as_xyz
 1  'x, y, z'
loop_
 _atom_site_type_symbol
 _atom_site_label
 _atom_site_symmetry_multiplicity
 _atom_site_fract_x
 _atom_site_fract_y
 _atom_site_fract_z
 _atom_site_fract_occupancy
 Pb  Pb1  1  0.62500  0.37500  0.25000  1
 Pb  Pb2  1  0.87500  0.12500  0.75000  1
 Se  Se1  1  0.00978  0.85830  0.49751  1
 Se  Se2  1  0.14170  0.13920  0.15147  1
 Se  Se3  1  0.48773  0.99022  0.34853  1
 Se  Se4  1  0.35830  0.50978  0.99751  1
 Se  Se5  1  0.63920  0.64170  0.65147  1
 Se  Se6  1  0.49022  0.98773  0.84853  1
 Se  Se7  1  0.86080  0.51227  0.00249  1
 Se  Se8  1  0.01227  0.36080  0.50249  1
 Sm  Sm1  1  0.11700  0.75000  0.86700  1
 Sm  Sm2  1  0.25000  0.61700  0.36700  1
 Sm  Sm3  1  0.38300  0.25000  0.63300  1
 Sm  Sm4  1  0.75000  0.88300  0.13300  1
