CIF file written using JARVIS-Tools package.
data_Hf23Se25
_symmetry_space_group_name_H-M  'P1'
_cell_length_a       7.92743
_cell_length_b       8.01522
_cell_length_c       15.8256
_cell_angle_alpha    98.088
_cell_angle_beta     90.2288
_cell_angle_gamma    102.138

_symmetry_Int_Tables_number  1
_chemical_formula_structural  Hf23Se25
_chemical_formula_sum  Hf23Se25
_cell_volume  972.7123792578637
_cell_formula_units_Z  1
loop_
  _symmetry_equiv_pos_site_id
 _symmetry_equiv_pos_as_xyz
 1  'x, y, z'
loop_
 _atom_site_type_symbol
 _atom_site_label
 _atom_site_symmetry_multiplicity
 _atom_site_fract_x
 _atom_site_fract_y
 _atom_site_fract_z
 _atom_site_fract_occupancy
 Hf  Hf1  1  0.28280  0.93176  0.91999  1
 Hf  Hf2  1  0.97234  0.33689  0.79471  1
 Hf  Hf3  1  0.43846  0.72930  0.48456  1
 Hf  Hf4  1  0.52201  0.13208  0.75842  1
 Hf  Hf5  1  0.20693  0.53358  0.64000  1
 Hf  Hf6  1  0.84970  0.73399  0.88116  1
 Hf  Hf7  1  0.64043  0.73048  0.68052  1
 Hf  Hf8  1  0.40579  0.53410  0.83660  1
 Hf  Hf9  1  0.09394  0.94161  0.72158  1
 Hf  Hf10  1  0.69253  0.93788  0.31707  1
 Hf  Hf11  1  0.76594  0.33355  0.59864  1
 Hf  Hf12  1  0.71848  0.12877  0.96471  1
 Hf  Hf13  1  0.00357  0.53201  0.43981  1
 Hf  Hf14  1  0.80666  0.53498  0.23835  1
 Hf  Hf15  1  0.92212  0.13006  0.16125  1
 Hf  Hf16  1  0.37124  0.33754  0.20137  1
 Hf  Hf17  1  0.04661  0.73236  0.07754  1
 Hf  Hf18  1  0.48846  0.93396  0.11962  1
 Hf  Hf19  1  0.61101  0.52877  0.04409  1
 Hf  Hf20  1  0.24722  0.73473  0.27870  1
 Hf  Hf21  1  0.57039  0.33475  0.40205  1
 Hf  Hf22  1  0.33140  0.12964  0.56298  1
 Hf  Hf23  1  0.12471  0.13324  0.35631  1
 Se  Se1  1  0.80122  0.00324  0.80087  1
 Se  Se2  1  0.20079  0.00277  0.19812  1
 Se  Se3  1  0.12044  0.59646  0.92054  1
 Se  Se4  1  0.35887  0.80107  0.76040  1
 Se  Se5  1  0.68133  0.39777  0.88081  1
 Se  Se6  1  0.00132  0.00317  0.99973  1
 Se  Se7  1  0.91909  0.60618  0.71919  1
 Se  Se8  1  0.24030  0.20253  0.84377  1
 Se  Se9  1  0.15176  0.79946  0.55936  1
 Se  Se10  1  0.48052  0.39897  0.67929  1
 Se  Se11  1  0.03690  0.19740  0.63666  1
 Se  Se12  1  0.60694  0.00045  0.59941  1
 Se  Se13  1  0.96086  0.79936  0.36147  1
 Se  Se14  1  0.27744  0.39315  0.47954  1
 Se  Se15  1  0.84119  0.19685  0.44149  1
 Se  Se16  1  0.52191  0.60564  0.32286  1
 Se  Se17  1  0.76120  0.79882  0.15915  1
 Se  Se18  1  0.08113  0.40091  0.27850  1
 Se  Se19  1  0.40117  0.99884  0.40076  1
 Se  Se20  1  0.63925  0.20269  0.24085  1
 Se  Se21  1  0.31793  0.59930  0.11871  1
 Se  Se22  1  0.88748  0.39964  0.07900  1
 Se  Se23  1  0.72216  0.60448  0.52012  1
 Se  Se24  1  0.55778  0.79241  0.95992  1
 Se  Se25  1  0.43157  0.19904  0.03947  1
