CIF file written using JARVIS-Tools package.
data_HoGaNi
_symmetry_space_group_name_H-M  'Pnma'
_cell_length_a       4.25049
_cell_length_b       6.77335
_cell_length_c       7.32659
_cell_angle_alpha    90
_cell_angle_beta     90
_cell_angle_gamma    90

_symmetry_Int_Tables_number  62
_chemical_formula_structural  HoGaNi
_chemical_formula_sum  Ho4Ga4Ni4
_cell_volume  210.93303983080264
_cell_formula_units_Z  4
loop_
  _symmetry_equiv_pos_site_id
 _symmetry_equiv_pos_as_xyz
 1  'x, y, z'
loop_
 _atom_site_type_symbol
 _atom_site_label
 _atom_site_symmetry_multiplicity
 _atom_site_fract_x
 _atom_site_fract_y
 _atom_site_fract_z
 _atom_site_fract_occupancy
 Ga  Ga1  1  0.75000  0.32509  0.92325  1
 Ga  Ga2  1  0.25000  0.17491  0.42325  1
 Ga  Ga3  1  0.75000  0.82509  0.57675  1
 Ga  Ga4  1  0.25000  0.67491  0.07675  1
 Ho  Ho1  1  0.25000  0.51928  0.69543  1
 Ho  Ho2  1  0.25000  0.01928  0.80457  1
 Ho  Ho3  1  0.75000  0.98072  0.19543  1
 Ho  Ho4  1  0.75000  0.48072  0.30457  1
 Ni  Ni1  1  0.25000  0.28517  0.09665  1
 Ni  Ni2  1  0.25000  0.78517  0.40335  1
 Ni  Ni3  1  0.75000  0.71483  0.90335  1
 Ni  Ni4  1  0.75000  0.21483  0.59665  1
