CIF file written using JARVIS-Tools package.
data_ZrCr2
_symmetry_space_group_name_H-M  'P6_3/mmc'
_cell_length_a       5.08163
_cell_length_b       5.08163
_cell_length_c       8.07011
_cell_angle_alpha    90
_cell_angle_beta     90
_cell_angle_gamma    120

_symmetry_Int_Tables_number  194
_chemical_formula_structural  ZrCr2
_chemical_formula_sum  Zr4Cr8
_cell_volume  180.47446495731407
_cell_formula_units_Z  4
loop_
  _symmetry_equiv_pos_site_id
 _symmetry_equiv_pos_as_xyz
 1  'x, y, z'
loop_
 _atom_site_type_symbol
 _atom_site_label
 _atom_site_symmetry_multiplicity
 _atom_site_fract_x
 _atom_site_fract_y
 _atom_site_fract_z
 _atom_site_fract_occupancy
 Cr  Cr1  1  0.00000  0.00000  0.00000  1
 Cr  Cr2  1  0.00000  0.00000  0.50000  1
 Cr  Cr3  1  0.33502  0.16751  0.25000  1
 Cr  Cr4  1  0.16751  0.33502  0.75000  1
 Cr  Cr5  1  0.16751  0.83249  0.75000  1
 Cr  Cr6  1  0.83249  0.16751  0.25000  1
 Cr  Cr7  1  0.83249  0.66498  0.25000  1
 Cr  Cr8  1  0.66498  0.83249  0.75000  1
 Zr  Zr1  1  0.33333  0.66667  0.05998  1
 Zr  Zr2  1  0.66667  0.33333  0.55998  1
 Zr  Zr3  1  0.66667  0.33333  0.94002  1
 Zr  Zr4  1  0.33333  0.66667  0.44002  1
