CIF file written using JARVIS-Tools package.
data_HoSnRh
_symmetry_space_group_name_H-M  'P-62m'
_cell_length_a       7.56689
_cell_length_b       7.56689
_cell_length_c       3.79026
_cell_angle_alpha    90
_cell_angle_beta     90
_cell_angle_gamma    120

_symmetry_Int_Tables_number  189
_chemical_formula_structural  HoSnRh
_chemical_formula_sum  Ho3Sn3Rh3
_cell_volume  187.9468764484904
_cell_formula_units_Z  3
loop_
  _symmetry_equiv_pos_site_id
 _symmetry_equiv_pos_as_xyz
 1  'x, y, z'
loop_
 _atom_site_type_symbol
 _atom_site_label
 _atom_site_symmetry_multiplicity
 _atom_site_fract_x
 _atom_site_fract_y
 _atom_site_fract_z
 _atom_site_fract_occupancy
 Ho  Ho1  1  0.59570  -0.00000  0.00000  1
 Ho  Ho2  1  0.40430  0.40430  0.00000  1
 Ho  Ho3  1  -0.00000  0.59570  0.00000  1
 Rh  Rh1  1  0.66667  0.33333  0.50000  1
 Rh  Rh2  1  0.33333  0.66667  0.50000  1
 Rh  Rh3  1  0.00000  0.00000  0.00000  1
 Sn  Sn1  1  0.73592  0.73592  0.50000  1
 Sn  Sn2  1  0.26408  -0.00000  0.50000  1
 Sn  Sn3  1  -0.00000  0.26408  0.50000  1
