CIF file written using JARVIS-Tools package.
data_Na3MnBSO7
_symmetry_space_group_name_H-M  'P2_1/m'
_cell_length_a       5.25754
_cell_length_b       6.84068
_cell_length_c       9.01745
_cell_angle_alpha    90
_cell_angle_beta     90.7232
_cell_angle_gamma    90

_symmetry_Int_Tables_number  11
_chemical_formula_structural  Na3MnBSO7
_chemical_formula_sum  Na6Mn2B2S2O4
_cell_volume  324.28792886957996
_cell_formula_units_Z  2
loop_
  _symmetry_equiv_pos_site_id
 _symmetry_equiv_pos_as_xyz
 1  'x, y, z'
loop_
 _atom_site_type_symbol
 _atom_site_label
 _atom_site_symmetry_multiplicity
 _atom_site_fract_x
 _atom_site_fract_y
 _atom_site_fract_z
 _atom_site_fract_occupancy
 B  B1  1  0.73281  0.75000  0.93864  1
 B  B2  1  0.26719  0.25000  0.06136  1
 Mn  Mn1  1  0.75722  0.75000  0.66266  1
 Mn  Mn2  1  0.24278  0.25000  0.33734  1
 Na  Na1  1  0.74952  0.25000  0.93524  1
 Na  Na2  1  0.25048  0.75000  0.06476  1
 Na  Na3  1  0.23806  0.50829  0.76189  1
 Na  Na4  1  0.76194  0.49171  0.23811  1
 Na  Na5  1  0.76194  0.00829  0.23811  1
 Na  Na6  1  0.23806  0.99171  0.76189  1
 O  O1  1  0.71048  0.75000  0.08858  1
 O  O2  1  0.96587  0.75000  0.86533  1
 O  O3  1  0.03413  0.25000  0.13467  1
 O  O4  1  0.48034  0.25000  0.15774  1
 O  O5  1  0.21367  0.92460  0.32941  1
 O  O6  1  0.21367  0.57540  0.32941  1
 O  O7  1  0.83607  0.25000  0.43628  1
 O  O8  1  0.51966  0.75000  0.84226  1
 O  O9  1  0.42754  0.25000  0.55881  1
 O  O10  1  0.78633  0.42460  0.67059  1
 O  O11  1  0.78633  0.07540  0.67059  1
 O  O12  1  0.57246  0.75000  0.44119  1
 O  O13  1  0.16393  0.75000  0.56372  1
 O  O14  1  0.28952  0.25000  0.91142  1
 S  S1  1  0.71039  0.25000  0.58265  1
 S  S2  1  0.28961  0.75000  0.41735  1
