CIF file written using JARVIS-Tools package.
data_K5Dy3I12
_symmetry_space_group_name_H-M  'P-62m'
_cell_length_a       14.4999
_cell_length_b       14.4999
_cell_length_c       4.37288
_cell_angle_alpha    90
_cell_angle_beta     90
_cell_angle_gamma    120

_symmetry_Int_Tables_number  189
_chemical_formula_structural  K5Dy3I12
_chemical_formula_sum  K5Dy3I2
_cell_volume  796.2106216305959
_cell_formula_units_Z  1
loop_
  _symmetry_equiv_pos_site_id
 _symmetry_equiv_pos_as_xyz
 1  'x, y, z'
loop_
 _atom_site_type_symbol
 _atom_site_label
 _atom_site_symmetry_multiplicity
 _atom_site_fract_x
 _atom_site_fract_y
 _atom_site_fract_z
 _atom_site_fract_occupancy
 Dy  Dy1  1  0.00000  0.67549  0.00000  1
 Dy  Dy2  1  0.67549  0.00000  0.00000  1
 Dy  Dy3  1  0.32451  0.32451  0.00000  1
 I  I1  1  0.79667  0.24325  0.00000  1
 I  I2  1  0.00000  0.82848  0.50000  1
 I  I3  1  0.44657  0.20333  0.00000  1
 I  I4  1  0.20333  0.44657  0.00000  1
 I  I5  1  0.82848  0.00000  0.50000  1
 I  I6  1  0.55343  0.75675  0.00000  1
 I  I7  1  0.52701  -0.00000  0.50000  1
 I  I8  1  -0.00000  0.52701  0.50000  1
 I  I9  1  0.24325  0.79667  0.00000  1
 I  I10  1  0.17152  0.17152  0.50000  1
 I  I11  1  0.75675  0.55343  0.00000  1
 I  I12  1  0.47299  0.47299  0.50000  1
 K  K1  1  0.33333  0.66667  0.50000  1
 K  K2  1  0.66667  0.33333  0.50000  1
 K  K3  1  0.28010  -0.00000  0.50000  1
 K  K4  1  0.71990  0.71990  0.50000  1
 K  K5  1  -0.00000  0.28010  0.50000  1
