CIF file written using JARVIS-Tools package.
data_UFe5Si3
_symmetry_space_group_name_H-M  'P4/mmm'
_cell_length_a       3.91516
_cell_length_b       3.91516
_cell_length_c       7.55369
_cell_angle_alpha    90
_cell_angle_beta     90
_cell_angle_gamma    90

_symmetry_Int_Tables_number  123
_chemical_formula_structural  UFe5Si3
_chemical_formula_sum  UFe5Si3
_cell_volume  115.78648618943441
_cell_formula_units_Z  1
loop_
  _symmetry_equiv_pos_site_id
 _symmetry_equiv_pos_as_xyz
 1  'x, y, z'
loop_
 _atom_site_type_symbol
 _atom_site_label
 _atom_site_symmetry_multiplicity
 _atom_site_fract_x
 _atom_site_fract_y
 _atom_site_fract_z
 _atom_site_fract_occupancy
 Fe  Fe1  1  0.00000  0.50000  0.31326  1
 Fe  Fe2  1  0.50000  0.00000  0.31326  1
 Fe  Fe3  1  0.50000  0.00000  0.68674  1
 Fe  Fe4  1  0.50000  0.50000  0.50000  1
 Fe  Fe5  1  0.00000  0.50000  0.68674  1
 Si  Si1  1  0.50000  0.50000  0.15723  1
 Si  Si2  1  0.50000  0.50000  0.84277  1
 Si  Si3  1  0.00000  0.00000  0.50000  1
 U  U1  1  0.00000  0.00000  0.00000  1
