CIF file written using JARVIS-Tools package.
data_Sr4Al6WO16
_symmetry_space_group_name_H-M  'I-43m'
_cell_length_a       8.31221
_cell_length_b       8.31221
_cell_length_c       8.31221
_cell_angle_alpha    109.471
_cell_angle_beta     109.471
_cell_angle_gamma    109.471

_symmetry_Int_Tables_number  217
_chemical_formula_structural  Sr4Al6WO16
_chemical_formula_sum  Sr4Al6WO6
_cell_volume  442.1076997367562
_cell_formula_units_Z  1
loop_
  _symmetry_equiv_pos_site_id
 _symmetry_equiv_pos_as_xyz
 1  'x, y, z'
loop_
 _atom_site_type_symbol
 _atom_site_label
 _atom_site_symmetry_multiplicity
 _atom_site_fract_x
 _atom_site_fract_y
 _atom_site_fract_z
 _atom_site_fract_occupancy
 Al  Al1  1  0.25000  0.50000  0.75000  1
 Al  Al2  1  0.50000  0.25000  0.75000  1
 Al  Al3  1  0.25000  0.75000  0.50000  1
 Al  Al4  1  0.75000  0.50000  0.25000  1
 Al  Al5  1  0.50000  0.75000  0.25000  1
 Al  Al6  1  0.75000  0.25000  0.50000  1
 O  O1  1  0.34534  -0.00000  0.66307  1
 O  O2  1  0.33693  0.68228  0.33693  1
 O  O3  1  0.66307  0.00000  0.34534  1
 O  O4  1  0.31772  0.65466  0.65466  1
 O  O5  1  0.65466  0.65466  0.31772  1
 O  O6  1  0.66307  0.34534  0.00000  1
 O  O7  1  0.68228  0.33693  0.33693  1
 O  O8  1  0.34534  0.66307  -0.00000  1
 O  O9  1  0.00000  0.66307  0.34534  1
 O  O10  1  0.33693  0.33693  0.68228  1
 O  O11  1  -0.00000  -0.00000  0.21592  1
 O  O12  1  0.78408  0.78408  0.78408  1
 O  O13  1  0.00000  0.21592  -0.00000  1
 O  O14  1  0.21592  0.00000  0.00000  1
 O  O15  1  0.65466  0.31772  0.65466  1
 O  O16  1  -0.00000  0.34534  0.66307  1
 Sr  Sr1  1  -0.00000  -0.00000  0.50799  1
 Sr  Sr2  1  0.00000  0.50799  -0.00000  1
 Sr  Sr3  1  0.50799  0.00000  0.00000  1
 Sr  Sr4  1  0.49201  0.49201  0.49201  1
 W  W1  1  0.00000  0.00000  0.00000  1
