CIF file written using JARVIS-Tools package.
data_Sr3ErRhO6
_symmetry_space_group_name_H-M  'R-3c'
_cell_length_a       6.80162
_cell_length_b       6.80162
_cell_length_c       6.80162
_cell_angle_alpha    92.126
_cell_angle_beta     92.1259
_cell_angle_gamma    92.126

_symmetry_Int_Tables_number  167
_chemical_formula_structural  Sr3ErRhO6
_chemical_formula_sum  Sr6Er2Rh2O2
_cell_volume  313.9902983878378
_cell_formula_units_Z  2
loop_
  _symmetry_equiv_pos_site_id
 _symmetry_equiv_pos_as_xyz
 1  'x, y, z'
loop_
 _atom_site_type_symbol
 _atom_site_label
 _atom_site_symmetry_multiplicity
 _atom_site_fract_x
 _atom_site_fract_y
 _atom_site_fract_z
 _atom_site_fract_occupancy
 Er  Er1  1  0.25000  0.25000  0.25000  1
 Er  Er2  1  0.75000  0.75000  0.75000  1
 O  O1  1  0.09145  0.29232  0.95764  1
 O  O2  1  0.59145  0.45764  0.79232  1
 O  O3  1  0.45764  0.79232  0.59145  1
 O  O4  1  0.04236  0.90855  0.70768  1
 O  O5  1  0.90855  0.70768  0.04236  1
 O  O6  1  0.70768  0.04236  0.90855  1
 O  O7  1  0.20768  0.40855  0.54236  1
 O  O8  1  0.40855  0.54236  0.20768  1
 O  O9  1  0.54236  0.20768  0.40855  1
 O  O10  1  0.29232  0.95764  0.09145  1
 O  O11  1  0.95764  0.09145  0.29232  1
 O  O12  1  0.79232  0.59145  0.45764  1
 Rh  Rh1  1  0.50000  0.50000  0.50000  1
 Rh  Rh2  1  0.00000  0.00000  0.00000  1
 Sr  Sr1  1  0.61977  0.88023  0.25000  1
 Sr  Sr2  1  0.25000  0.61977  0.88023  1
 Sr  Sr3  1  0.88023  0.25000  0.61977  1
 Sr  Sr4  1  0.38023  0.11977  0.75000  1
 Sr  Sr5  1  0.11977  0.75000  0.38023  1
 Sr  Sr6  1  0.75000  0.38023  0.11977  1
