CIF file written using JARVIS-Tools package.
data_In5S5Cl
_symmetry_space_group_name_H-M  'P2_1/m'
_cell_length_a       9.03263
_cell_length_b       3.97375
_cell_length_c       15.114
_cell_angle_alpha    90
_cell_angle_beta     93.6326
_cell_angle_gamma    90

_symmetry_Int_Tables_number  11
_chemical_formula_structural  In5S5Cl
_chemical_formula_sum  In0S0Cl2
_cell_volume  541.4016895212104
_cell_formula_units_Z  2
loop_
  _symmetry_equiv_pos_site_id
 _symmetry_equiv_pos_as_xyz
 1  'x, y, z'
loop_
 _atom_site_type_symbol
 _atom_site_label
 _atom_site_symmetry_multiplicity
 _atom_site_fract_x
 _atom_site_fract_y
 _atom_site_fract_z
 _atom_site_fract_occupancy
 Cl  Cl1  1  0.67019  0.25000  0.99598  1
 Cl  Cl2  1  0.32981  0.75000  0.00402  1
 In  In1  1  0.37993  0.25000  0.84456  1
 In  In2  1  0.62007  0.75000  0.15544  1
 In  In3  1  0.76216  0.25000  0.70939  1
 In  In4  1  0.23784  0.75000  0.29061  1
 In  In5  1  0.65868  0.25000  0.44612  1
 In  In6  1  0.95635  0.75000  0.35422  1
 In  In7  1  0.86527  0.75000  0.93655  1
 In  In8  1  0.13473  0.25000  0.06345  1
 In  In9  1  0.34132  0.75000  0.55388  1
 In  In10  1  0.04365  0.25000  0.64578  1
 S  S1  1  0.79176  0.25000  0.29566  1
 S  S2  1  0.03448  0.25000  0.89832  1
 S  S3  1  0.96552  0.75000  0.10168  1
 S  S4  1  0.67807  0.75000  0.80220  1
 S  S5  1  0.46776  0.75000  0.39940  1
 S  S6  1  0.16518  0.25000  0.49813  1
 S  S7  1  0.83482  0.75000  0.50187  1
 S  S8  1  0.53224  0.25000  0.60060  1
 S  S9  1  0.32193  0.25000  0.19780  1
 S  S10  1  0.20824  0.75000  0.70434  1
