CIF file written using JARVIS-Tools package.
data_YBPt2
_symmetry_space_group_name_H-M  'P6_222'
_cell_length_a       5.34644
_cell_length_b       5.34644
_cell_length_c       7.99855
_cell_angle_alpha    90
_cell_angle_beta     90
_cell_angle_gamma    120

_symmetry_Int_Tables_number  180
_chemical_formula_structural  YBPt2
_chemical_formula_sum  Y3B3Pt6
_cell_volume  198.00267881210965
_cell_formula_units_Z  3
loop_
  _symmetry_equiv_pos_site_id
 _symmetry_equiv_pos_as_xyz
 1  'x, y, z'
loop_
 _atom_site_type_symbol
 _atom_site_label
 _atom_site_symmetry_multiplicity
 _atom_site_fract_x
 _atom_site_fract_y
 _atom_site_fract_z
 _atom_site_fract_occupancy
 B  B1  1  0.00000  0.50000  0.66667  1
 B  B2  1  0.50000  0.00000  0.00000  1
 B  B3  1  0.50000  0.50000  0.33333  1
 Pt  Pt1  1  0.30591  0.15295  0.16667  1
 Pt  Pt2  1  0.15295  0.30591  0.50000  1
 Pt  Pt3  1  0.84705  0.15295  0.83333  1
 Pt  Pt4  1  0.84705  0.69409  0.50000  1
 Pt  Pt5  1  0.15295  0.84705  0.83333  1
 Pt  Pt6  1  0.69409  0.84705  0.16667  1
 Y  Y1  1  0.50000  0.00000  0.50000  1
 Y  Y2  1  0.00000  0.50000  0.16667  1
 Y  Y3  1  0.50000  0.50000  0.83333  1
