CIF file written using JARVIS-Tools package.
data_CrAg3ClO4
_symmetry_space_group_name_H-M  'P4/nmm'
_cell_length_a       5.30591
_cell_length_b       7.36423
_cell_length_c       7.36417
_cell_angle_alpha    90
_cell_angle_beta     90
_cell_angle_gamma    90

_symmetry_Int_Tables_number  129
_chemical_formula_structural  CrAg3ClO4
_chemical_formula_sum  Cr2Ag6Cl2O8
_cell_volume  287.74722321087444
_cell_formula_units_Z  2
loop_
  _symmetry_equiv_pos_site_id
 _symmetry_equiv_pos_as_xyz
 1  'x, y, z'
loop_
 _atom_site_type_symbol
 _atom_site_label
 _atom_site_symmetry_multiplicity
 _atom_site_fract_x
 _atom_site_fract_y
 _atom_site_fract_z
 _atom_site_fract_occupancy
 Ag  Ag1  1  0.10910  0.50000  0.00000  1
 Ag  Ag2  1  0.50000  0.75000  0.25000  1
 Ag  Ag3  1  0.50000  0.25000  0.25000  1
 Ag  Ag4  1  0.89090  0.00000  0.50000  1
 Ag  Ag5  1  0.50000  0.25000  0.75000  1
 Ag  Ag6  1  0.50000  0.75000  0.75000  1
 Cl  Cl1  1  0.63568  0.50000  0.00000  1
 Cl  Cl2  1  0.36432  0.00000  0.50000  1
 Cr  Cr1  1  0.99998  0.00000  0.00000  1
 Cr  Cr2  1  0.00002  0.50000  0.50000  1
 O  O1  1  0.18949  0.81696  0.00000  1
 O  O2  1  0.18955  0.50000  0.68304  1
 O  O3  1  0.18949  0.18304  0.00000  1
 O  O4  1  0.18955  0.50000  0.31696  1
 O  O5  1  0.81045  0.00000  0.18304  1
 O  O6  1  0.81051  0.68304  0.50000  1
 O  O7  1  0.81051  0.31696  0.50000  1
 O  O8  1  0.81045  0.00000  0.81696  1
