CIF file written using JARVIS-Tools package.
data_LiZn3
_symmetry_space_group_name_H-M  'P6_3/mmc'
_cell_length_a       5.53212
_cell_length_b       5.53212
_cell_length_c       4.37514
_cell_angle_alpha    90
_cell_angle_beta     90
_cell_angle_gamma    120

_symmetry_Int_Tables_number  194
_chemical_formula_structural  LiZn3
_chemical_formula_sum  Li2Zn6
_cell_volume  115.95972296834128
_cell_formula_units_Z  2
loop_
  _symmetry_equiv_pos_site_id
 _symmetry_equiv_pos_as_xyz
 1  'x, y, z'
loop_
 _atom_site_type_symbol
 _atom_site_label
 _atom_site_symmetry_multiplicity
 _atom_site_fract_x
 _atom_site_fract_y
 _atom_site_fract_z
 _atom_site_fract_occupancy
 Li  Li1  1  0.66667  0.33333  0.75000  1
 Li  Li2  1  0.33333  0.66667  0.25000  1
 Zn  Zn1  1  0.16788  0.33577  0.75000  1
 Zn  Zn2  1  0.66423  0.83212  0.75000  1
 Zn  Zn3  1  0.83212  0.16788  0.25000  1
 Zn  Zn4  1  0.83212  0.66423  0.25000  1
 Zn  Zn5  1  0.33577  0.16788  0.25000  1
 Zn  Zn6  1  0.16788  0.83212  0.75000  1
