CIF file written using JARVIS-Tools package.
data_SmHg2
_symmetry_space_group_name_H-M  'P6/mmm'
_cell_length_a       5.00014
_cell_length_b       5.00079
_cell_length_c       3.42547
_cell_angle_alpha    90.0001
_cell_angle_beta     89.9975
_cell_angle_gamma    120.004

_symmetry_Int_Tables_number  191
_chemical_formula_structural  SmHg2
_chemical_formula_sum  SmHg2
_cell_volume  74.17396305174061
_cell_formula_units_Z  1
loop_
  _symmetry_equiv_pos_site_id
 _symmetry_equiv_pos_as_xyz
 1  'x, y, z'
loop_
 _atom_site_type_symbol
 _atom_site_label
 _atom_site_symmetry_multiplicity
 _atom_site_fract_x
 _atom_site_fract_y
 _atom_site_fract_z
 _atom_site_fract_occupancy
 Hg  Hg1  1  0.66665  0.33332  0.49977  1
 Hg  Hg2  1  0.33335  0.66668  0.50023  1
 Sm  Sm1  1  0.00000  0.00000  0.00000  1
