CIF file written using JARVIS-Tools package.
data_Mo3Se4
_symmetry_space_group_name_H-M  'R-3'
_cell_length_a       6.73455
_cell_length_b       6.73456
_cell_length_c       6.73456
_cell_angle_alpha    91.8476
_cell_angle_beta     91.8475
_cell_angle_gamma    91.8476

_symmetry_Int_Tables_number  148
_chemical_formula_structural  Mo3Se4
_chemical_formula_sum  Mo6Se8
_cell_volume  304.9535745136117
_cell_formula_units_Z  2
loop_
  _symmetry_equiv_pos_site_id
 _symmetry_equiv_pos_as_xyz
 1  'x, y, z'
loop_
 _atom_site_type_symbol
 _atom_site_label
 _atom_site_symmetry_multiplicity
 _atom_site_fract_x
 _atom_site_fract_y
 _atom_site_fract_z
 _atom_site_fract_occupancy
 Mo  Mo1  1  0.58598  0.45377  0.77203  1
 Mo  Mo2  1  0.45377  0.77203  0.58598  1
 Mo  Mo3  1  0.77203  0.58598  0.45377  1
 Mo  Mo4  1  0.41402  0.54623  0.22797  1
 Mo  Mo5  1  0.54623  0.22797  0.41402  1
 Mo  Mo6  1  0.22797  0.41402  0.54623  1
 Se  Se1  1  0.87392  0.25590  0.61884  1
 Se  Se2  1  0.25590  0.61884  0.87392  1
 Se  Se3  1  0.61884  0.87392  0.25590  1
 Se  Se4  1  0.12608  0.74410  0.38116  1
 Se  Se5  1  0.74410  0.38116  0.12608  1
 Se  Se6  1  0.38116  0.12608  0.74410  1
 Se  Se7  1  0.21495  0.21495  0.21495  1
 Se  Se8  1  0.78505  0.78505  0.78505  1
