CIF file written using JARVIS-Tools package.
data_UVC2
_symmetry_space_group_name_H-M  'Pnma'
_cell_length_a       3.21979
_cell_length_b       5.55187
_cell_length_c       10.7733
_cell_angle_alpha    90
_cell_angle_beta     90
_cell_angle_gamma    90

_symmetry_Int_Tables_number  62
_chemical_formula_structural  UVC2
_chemical_formula_sum  U4V4C8
_cell_volume  192.5827265060923
_cell_formula_units_Z  4
loop_
  _symmetry_equiv_pos_site_id
 _symmetry_equiv_pos_as_xyz
 1  'x, y, z'
loop_
 _atom_site_type_symbol
 _atom_site_label
 _atom_site_symmetry_multiplicity
 _atom_site_fract_x
 _atom_site_fract_y
 _atom_site_fract_z
 _atom_site_fract_occupancy
 C  C1  1  0.25000  0.23587  0.50898  1
 C  C2  1  0.75000  0.76413  0.49102  1
 C  C3  1  0.25000  0.73587  0.99102  1
 C  C4  1  0.75000  0.26413  0.00898  1
 C  C5  1  0.25000  0.66462  0.25432  1
 C  C6  1  0.75000  0.83538  0.75432  1
 C  C7  1  0.25000  0.16462  0.24568  1
 C  C8  1  0.75000  0.33538  0.74568  1
 U  U1  1  0.25000  0.58069  0.64171  1
 U  U2  1  0.75000  0.41931  0.35829  1
 U  U3  1  0.25000  0.08069  0.85829  1
 U  U4  1  0.75000  0.91931  0.14171  1
 V  V1  1  0.75000  0.58056  0.89979  1
 V  V2  1  0.75000  0.08056  0.60021  1
 V  V3  1  0.25000  0.41944  0.10021  1
 V  V4  1  0.25000  0.91944  0.39979  1
