CIF file written using JARVIS-Tools package.
data_LiNbNiO4
_symmetry_space_group_name_H-M  'P4_322'
_cell_length_a       6.0039
_cell_length_b       6.0039
_cell_length_c       8.53775
_cell_angle_alpha    90
_cell_angle_beta     90
_cell_angle_gamma    90

_symmetry_Int_Tables_number  95
_chemical_formula_structural  LiNbNiO4
_chemical_formula_sum  Li4Nb4Ni4O6
_cell_volume  307.7590518650505
_cell_formula_units_Z  4
loop_
  _symmetry_equiv_pos_site_id
 _symmetry_equiv_pos_as_xyz
 1  'x, y, z'
loop_
 _atom_site_type_symbol
 _atom_site_label
 _atom_site_symmetry_multiplicity
 _atom_site_fract_x
 _atom_site_fract_y
 _atom_site_fract_z
 _atom_site_fract_occupancy
 Li  Li1  1  0.00000  0.24002  0.00000  1
 Li  Li2  1  0.00000  0.75998  0.50000  1
 Li  Li3  1  0.24002  0.00000  0.25000  1
 Li  Li4  1  0.75998  0.00000  0.75000  1
 Nb  Nb1  1  0.25308  0.25308  0.62500  1
 Nb  Nb2  1  0.25308  0.74692  0.87500  1
 Nb  Nb3  1  0.74692  0.25308  0.37500  1
 Nb  Nb4  1  0.74692  0.74692  0.12500  1
 Ni  Ni1  1  0.24477  0.50000  0.25000  1
 Ni  Ni2  1  0.50000  0.24477  0.00000  1
 Ni  Ni3  1  0.50000  0.75523  0.50000  1
 Ni  Ni4  1  0.75523  0.50000  0.75000  1
 O  O1  1  0.00696  0.25691  0.25260  1
 O  O2  1  0.99304  0.25691  0.74740  1
 O  O3  1  0.25691  0.00696  0.99740  1
 O  O4  1  0.25691  0.99304  0.50260  1
 O  O5  1  0.25741  0.49267  0.00934  1
 O  O6  1  0.25741  0.50733  0.49066  1
 O  O7  1  0.00696  0.74309  0.24740  1
 O  O8  1  0.74309  0.00696  0.00260  1
 O  O9  1  0.50733  0.25741  0.75934  1
 O  O10  1  0.50733  0.74259  0.74066  1
 O  O11  1  0.74259  0.50733  0.50934  1
 O  O12  1  0.74259  0.49267  0.99066  1
 O  O13  1  0.49267  0.25741  0.24066  1
 O  O14  1  0.74309  0.99304  0.49740  1
 O  O15  1  0.49267  0.74259  0.25934  1
 O  O16  1  0.99304  0.74309  0.75260  1
