CIF file written using JARVIS-Tools package.
data_YH3O3
_symmetry_space_group_name_H-M  'P6_3/m'
_cell_length_a       6.28708
_cell_length_b       6.28708
_cell_length_c       3.54476
_cell_angle_alpha    90
_cell_angle_beta     90
_cell_angle_gamma    120

_symmetry_Int_Tables_number  176
_chemical_formula_structural  YH3O3
_chemical_formula_sum  Y2H6O6
_cell_volume  121.34317552281003
_cell_formula_units_Z  2
loop_
  _symmetry_equiv_pos_site_id
 _symmetry_equiv_pos_as_xyz
 1  'x, y, z'
loop_
 _atom_site_type_symbol
 _atom_site_label
 _atom_site_symmetry_multiplicity
 _atom_site_fract_x
 _atom_site_fract_y
 _atom_site_fract_z
 _atom_site_fract_occupancy
 H  H1  1  0.13437  0.85990  0.75000  1
 H  H2  1  0.27448  0.13437  0.25000  1
 H  H3  1  0.72552  0.86563  0.75000  1
 H  H4  1  0.86563  0.14010  0.25000  1
 H  H5  1  0.85990  0.72552  0.25000  1
 H  H6  1  0.14010  0.27448  0.75000  1
 O  O1  1  0.39416  0.30984  0.25000  1
 O  O2  1  0.30984  0.91569  0.75000  1
 O  O3  1  0.60584  0.69016  0.75000  1
 O  O4  1  0.69016  0.08431  0.25000  1
 O  O5  1  0.91569  0.60584  0.25000  1
 O  O6  1  0.08431  0.39416  0.75000  1
 Y  Y1  1  0.66667  0.33333  0.75000  1
 Y  Y2  1  0.33333  0.66667  0.25000  1
