CIF file written using JARVIS-Tools package.
data_Li2Fe3CuO8
_symmetry_space_group_name_H-M  'R-3m'
_cell_length_a       5.85284
_cell_length_b       5.85284
_cell_length_c       5.85284
_cell_angle_alpha    57.6094
_cell_angle_beta     57.6094
_cell_angle_gamma    57.6095

_symmetry_Int_Tables_number  166
_chemical_formula_structural  Li2Fe3CuO8
_chemical_formula_sum  Li2Fe3CuO8
_cell_volume  133.9799198004486
_cell_formula_units_Z  1
loop_
  _symmetry_equiv_pos_site_id
 _symmetry_equiv_pos_as_xyz
 1  'x, y, z'
loop_
 _atom_site_type_symbol
 _atom_site_label
 _atom_site_symmetry_multiplicity
 _atom_site_fract_x
 _atom_site_fract_y
 _atom_site_fract_z
 _atom_site_fract_occupancy
 Cu  Cu1  1  0.50000  0.50000  0.50000  1
 Fe  Fe1  1  0.00000  0.50000  0.50000  1
 Fe  Fe2  1  0.50000  0.00000  0.50000  1
 Fe  Fe3  1  0.50000  0.50000  -0.00000  1
 Li  Li1  1  0.12426  0.12426  0.12426  1
 Li  Li2  1  0.87574  0.87574  0.87574  1
 O  O1  1  0.26323  0.26323  0.26323  1
 O  O2  1  0.25231  0.25231  0.71224  1
 O  O3  1  0.25231  0.71224  0.25231  1
 O  O4  1  0.71224  0.25231  0.25231  1
 O  O5  1  0.28776  0.74769  0.74769  1
 O  O6  1  0.74769  0.28776  0.74769  1
 O  O7  1  0.74769  0.74769  0.28776  1
 O  O8  1  0.73677  0.73677  0.73677  1
