CIF file written using JARVIS-Tools package.
data_YCr3Se2ClO8
_symmetry_space_group_name_H-M  'Pmmn'
_cell_length_a       6.49683
_cell_length_b       7.00404
_cell_length_c       9.61969
_cell_angle_alpha    90
_cell_angle_beta     90
_cell_angle_gamma    90

_symmetry_Int_Tables_number  59
_chemical_formula_structural  YCr3Se2ClO8
_chemical_formula_sum  Y2Cr6Se4Cl2O6
_cell_volume  437.73536445430125
_cell_formula_units_Z  2
loop_
  _symmetry_equiv_pos_site_id
 _symmetry_equiv_pos_as_xyz
 1  'x, y, z'
loop_
 _atom_site_type_symbol
 _atom_site_label
 _atom_site_symmetry_multiplicity
 _atom_site_fract_x
 _atom_site_fract_y
 _atom_site_fract_z
 _atom_site_fract_occupancy
 Cl  Cl1  1  0.50000  0.14800  0.50000  1
 Cl  Cl2  1  0.00000  0.85200  0.00000  1
 Cr  Cr1  1  0.25000  0.00000  0.25000  1
 Cr  Cr2  1  0.25000  0.00000  0.75000  1
 Cr  Cr3  1  0.75000  0.00000  0.25000  1
 Cr  Cr4  1  0.50000  0.78974  0.00000  1
 Cr  Cr5  1  0.00000  0.21026  0.50000  1
 Cr  Cr6  1  0.75000  0.00000  0.75000  1
 O  O1  1  0.70856  0.73831  0.65925  1
 O  O2  1  0.00000  0.00145  0.36387  1
 O  O3  1  0.79144  0.26169  0.84075  1
 O  O4  1  0.00000  0.43254  0.36532  1
 O  O5  1  0.29144  0.73831  0.34075  1
 O  O6  1  0.50000  0.56746  0.86532  1
 O  O7  1  0.70856  0.73831  0.34075  1
 O  O8  1  0.50000  0.56746  0.13468  1
 O  O9  1  0.20856  0.26169  0.84075  1
 O  O10  1  0.79144  0.26169  0.15925  1
 O  O11  1  0.00000  0.43254  0.63468  1
 O  O12  1  0.50000  -0.00145  0.86387  1
 O  O13  1  0.20856  0.26169  0.15925  1
 O  O14  1  0.29144  0.73831  0.65925  1
 O  O15  1  0.50000  -0.00145  0.13613  1
 O  O16  1  0.00000  0.00145  0.63613  1
 Se  Se1  1  0.00000  0.41599  0.18312  1
 Se  Se2  1  0.50000  0.58401  0.31688  1
 Se  Se3  1  0.50000  0.58401  0.68312  1
 Se  Se4  1  0.00000  0.41599  0.81688  1
 Y  Y1  1  0.50000  0.26845  0.00000  1
 Y  Y2  1  0.00000  0.73155  0.50000  1
