CIF file written using JARVIS-Tools package.
data_Ta2O
_symmetry_space_group_name_H-M  'I-43m'
_cell_length_a       6.50815
_cell_length_b       6.50815
_cell_length_c       6.50815
_cell_angle_alpha    109.471
_cell_angle_beta     109.471
_cell_angle_gamma    109.471

_symmetry_Int_Tables_number  217
_chemical_formula_structural  Ta2O
_chemical_formula_sum  Ta8O4
_cell_volume  212.2024468016351
_cell_formula_units_Z  4
loop_
  _symmetry_equiv_pos_site_id
 _symmetry_equiv_pos_as_xyz
 1  'x, y, z'
loop_
 _atom_site_type_symbol
 _atom_site_label
 _atom_site_symmetry_multiplicity
 _atom_site_fract_x
 _atom_site_fract_y
 _atom_site_fract_z
 _atom_site_fract_occupancy
 O  O1  1  0.00000  0.00000  0.70993  1
 O  O2  1  -0.00000  0.70993  0.00000  1
 O  O3  1  0.70993  -0.00000  -0.00000  1
 O  O4  1  0.29007  0.29007  0.29007  1
 Ta  Ta1  1  0.57295  0.57295  0.57295  1
 Ta  Ta2  1  0.42705  -0.00000  -0.00000  1
 Ta  Ta3  1  -0.00000  0.42705  0.00000  1
 Ta  Ta4  1  0.00000  0.00000  0.42705  1
 Ta  Ta5  1  0.50000  0.50000  -0.00000  1
 Ta  Ta6  1  0.50000  0.00000  0.50000  1
 Ta  Ta7  1  0.00000  0.50000  0.50000  1
 Ta  Ta8  1  0.00000  0.00000  0.00000  1
