CIF file written using JARVIS-Tools package.
data_Rb2Li14Pb3O14
_symmetry_space_group_name_H-M  'Immm'
_cell_length_a       7.29734
_cell_length_b       8.00311
_cell_length_c       8.44632
_cell_angle_alpha    118.279
_cell_angle_beta     115.594
_cell_angle_gamma    90

_symmetry_Int_Tables_number  71
_chemical_formula_structural  Rb2Li14Pb3O14
_chemical_formula_sum  Rb2Li4Pb3O4
_cell_volume  378.55236221957756
_cell_formula_units_Z  1
loop_
  _symmetry_equiv_pos_site_id
 _symmetry_equiv_pos_as_xyz
 1  'x, y, z'
loop_
 _atom_site_type_symbol
 _atom_site_label
 _atom_site_symmetry_multiplicity
 _atom_site_fract_x
 _atom_site_fract_y
 _atom_site_fract_z
 _atom_site_fract_occupancy
 Li  Li1  1  0.40665  0.97796  0.26803  1
 Li  Li2  1  0.40665  0.29008  0.26803  1
 Li  Li3  1  0.13862  0.02204  0.73197  1
 Li  Li4  1  0.86138  0.29008  0.26803  1
 Li  Li5  1  0.59335  0.70992  0.73197  1
 Li  Li6  1  0.76854  0.12317  0.53707  1
 Li  Li7  1  0.23146  0.58609  0.46293  1
 Li  Li8  1  0.23146  0.87683  0.46293  1
 Li  Li9  1  0.50000  0.15853  -0.00000  1
 Li  Li10  1  0.50000  0.84147  0.00000  1
 Li  Li11  1  0.59335  0.02204  0.73197  1
 Li  Li12  1  0.86138  0.97796  0.26803  1
 Li  Li13  1  0.13862  0.70992  0.73197  1
 Li  Li14  1  0.76854  0.41391  0.53707  1
 O  O1  1  0.95515  0.24863  0.49725  1
 O  O2  1  0.29711  -0.00000  -0.00000  1
 O  O3  1  0.87308  0.68278  0.74616  1
 O  O4  1  0.70289  0.00000  0.00000  1
 O  O5  1  0.45790  0.75137  0.50275  1
 O  O6  1  0.54210  0.24863  0.49725  1
 O  O7  1  0.62790  0.84744  0.25580  1
 O  O8  1  0.87308  0.06339  0.74616  1
 O  O9  1  0.62790  0.40836  0.25580  1
 O  O10  1  0.37210  0.15256  0.74420  1
 O  O11  1  0.12692  0.31722  0.25384  1
 O  O12  1  0.37210  0.59164  0.74420  1
 O  O13  1  0.04485  0.75137  0.50275  1
 O  O14  1  0.12692  0.93661  0.25384  1
 Pb  Pb1  1  0.72738  0.72738  0.45476  1
 Pb  Pb2  1  0.00000  0.00000  0.00000  1
 Pb  Pb3  1  0.27262  0.27262  0.54524  1
 Rb  Rb1  1  0.76826  0.50000  0.00000  1
 Rb  Rb2  1  0.23174  0.50000  -0.00000  1
