CIF file written using JARVIS-Tools package.
data_Na6MnO4
_symmetry_space_group_name_H-M  'P6_3mc'
_cell_length_a       7.67021
_cell_length_b       7.67021
_cell_length_c       5.89707
_cell_angle_alpha    90
_cell_angle_beta     90
_cell_angle_gamma    120

_symmetry_Int_Tables_number  186
_chemical_formula_structural  Na6MnO4
_chemical_formula_sum  Na2Mn2O8
_cell_volume  300.4573549310462
_cell_formula_units_Z  2
loop_
  _symmetry_equiv_pos_site_id
 _symmetry_equiv_pos_as_xyz
 1  'x, y, z'
loop_
 _atom_site_type_symbol
 _atom_site_label
 _atom_site_symmetry_multiplicity
 _atom_site_fract_x
 _atom_site_fract_y
 _atom_site_fract_z
 _atom_site_fract_occupancy
 Mn  Mn1  1  0.33333  0.66667  0.75363  1
 Mn  Mn2  1  0.66667  0.33333  0.25363  1
 Na  Na1  1  0.92324  0.46162  0.85785  1
 Na  Na2  1  0.86034  0.72067  0.52589  1
 Na  Na3  1  0.53838  0.07676  0.85785  1
 Na  Na4  1  0.53838  0.46162  0.85785  1
 Na  Na5  1  0.13966  0.86034  0.02589  1
 Na  Na6  1  0.46162  0.53838  0.35785  1
 Na  Na7  1  0.46162  0.92324  0.35785  1
 Na  Na8  1  0.27933  0.13966  0.52589  1
 Na  Na9  1  0.86034  0.13966  0.52589  1
 Na  Na10  1  0.13966  0.27933  0.02589  1
 Na  Na11  1  0.07676  0.53838  0.35785  1
 Na  Na12  1  0.72067  0.86034  0.02589  1
 O  O1  1  0.81172  0.18828  0.13598  1
 O  O2  1  0.66667  0.33333  0.59293  1
 O  O3  1  0.18828  0.81172  0.63598  1
 O  O4  1  0.81172  0.62343  0.13598  1
 O  O5  1  0.37657  0.18828  0.13598  1
 O  O6  1  0.62343  0.81172  0.63598  1
 O  O7  1  0.18828  0.37657  0.63598  1
 O  O8  1  0.33333  0.66667  0.09293  1
