CIF file written using JARVIS-Tools package.
data_KTaGe3O9
_symmetry_space_group_name_H-M  'P-6c2'
_cell_length_a       7.02953
_cell_length_b       7.02953
_cell_length_c       10.3249
_cell_angle_alpha    90
_cell_angle_beta     90
_cell_angle_gamma    120

_symmetry_Int_Tables_number  188
_chemical_formula_structural  KTaGe3O9
_chemical_formula_sum  K2Ta2Ge6O8
_cell_volume  441.84476849991
_cell_formula_units_Z  2
loop_
  _symmetry_equiv_pos_site_id
 _symmetry_equiv_pos_as_xyz
 1  'x, y, z'
loop_
 _atom_site_type_symbol
 _atom_site_label
 _atom_site_symmetry_multiplicity
 _atom_site_fract_x
 _atom_site_fract_y
 _atom_site_fract_z
 _atom_site_fract_occupancy
 Ge  Ge1  1  0.07060  0.77941  0.75000  1
 Ge  Ge2  1  0.70880  0.92940  0.75000  1
 Ge  Ge3  1  0.22059  0.29120  0.75000  1
 Ge  Ge4  1  0.22059  0.92940  0.25000  1
 Ge  Ge5  1  0.07060  0.29120  0.25000  1
 Ge  Ge6  1  0.70880  0.77941  0.25000  1
 K  K1  1  0.66667  0.33333  0.00000  1
 K  K2  1  0.66667  0.33333  0.50000  1
 O  O1  1  0.26916  0.06523  0.75000  1
 O  O2  1  0.79607  0.06523  0.25000  1
 O  O3  1  0.79607  0.73084  0.75000  1
 O  O4  1  0.09311  0.65225  0.60920  1
 O  O5  1  0.93477  0.73084  0.25000  1
 O  O6  1  0.26916  0.20393  0.25000  1
 O  O7  1  0.09311  0.65225  0.89080  1
 O  O8  1  0.93477  0.20393  0.75000  1
 O  O9  1  0.55914  0.90689  0.60920  1
 O  O10  1  0.09311  0.44086  0.10920  1
 O  O11  1  0.55914  0.65225  0.10920  1
 O  O12  1  0.34775  0.90689  0.10920  1
 O  O13  1  0.34775  0.44086  0.60920  1
 O  O14  1  0.34775  0.90689  0.39080  1
 O  O15  1  0.09311  0.44086  0.39080  1
 O  O16  1  0.55914  0.90689  0.89080  1
 O  O17  1  0.34775  0.44086  0.89080  1
 O  O18  1  0.55914  0.65225  0.39080  1
 Ta  Ta1  1  0.33333  0.66667  0.50000  1
 Ta  Ta2  1  0.33333  0.66667  0.00000  1
