CIF file written using JARVIS-Tools package.
data_SmSbIr
_symmetry_space_group_name_H-M  'Pnma'
_cell_length_a       4.5696
_cell_length_b       7.2961
_cell_length_c       7.99858
_cell_angle_alpha    90
_cell_angle_beta     90
_cell_angle_gamma    90

_symmetry_Int_Tables_number  62
_chemical_formula_structural  SmSbIr
_chemical_formula_sum  Sm4Sb4Ir4
_cell_volume  266.67486925655584
_cell_formula_units_Z  4
loop_
  _symmetry_equiv_pos_site_id
 _symmetry_equiv_pos_as_xyz
 1  'x, y, z'
loop_
 _atom_site_type_symbol
 _atom_site_label
 _atom_site_symmetry_multiplicity
 _atom_site_fract_x
 _atom_site_fract_y
 _atom_site_fract_z
 _atom_site_fract_occupancy
 Ir  Ir1  1  0.25000  0.79140  0.91093  1
 Ir  Ir2  1  0.25000  0.29140  0.58907  1
 Ir  Ir3  1  0.75000  0.70860  0.41093  1
 Ir  Ir4  1  0.75000  0.20860  0.08907  1
 Sb  Sb1  1  0.25000  0.67712  0.58766  1
 Sb  Sb2  1  0.25000  0.17712  0.91234  1
 Sb  Sb3  1  0.75000  0.32288  0.41234  1
 Sb  Sb4  1  0.75000  0.82288  0.08766  1
 Sm  Sm1  1  0.75000  0.48761  0.80840  1
 Sm  Sm2  1  0.25000  0.01239  0.30840  1
 Sm  Sm3  1  0.75000  0.98761  0.69160  1
 Sm  Sm4  1  0.25000  0.51239  0.19160  1
