CIF file written using JARVIS-Tools package.
data_ErNi4As2
_symmetry_space_group_name_H-M  'P4_2/mnm'
_cell_length_a       7.2377
_cell_length_b       7.2377
_cell_length_c       3.78105
_cell_angle_alpha    90
_cell_angle_beta     90
_cell_angle_gamma    90

_symmetry_Int_Tables_number  136
_chemical_formula_structural  ErNi4As2
_chemical_formula_sum  Er2Ni8As4
_cell_volume  198.06803290731872
_cell_formula_units_Z  2
loop_
  _symmetry_equiv_pos_site_id
 _symmetry_equiv_pos_as_xyz
 1  'x, y, z'
loop_
 _atom_site_type_symbol
 _atom_site_label
 _atom_site_symmetry_multiplicity
 _atom_site_fract_x
 _atom_site_fract_y
 _atom_site_fract_z
 _atom_site_fract_occupancy
 As  As1  1  0.78250  0.21750  0.00000  1
 As  As2  1  0.71750  0.71750  0.50000  1
 As  As3  1  0.28250  0.28250  0.50000  1
 As  As4  1  0.21750  0.78250  0.00000  1
 Er  Er1  1  0.00000  0.00000  0.50000  1
 Er  Er2  1  0.50000  0.50000  0.00000  1
 Ni  Ni1  1  0.08845  0.34604  0.00000  1
 Ni  Ni2  1  0.84604  0.41155  0.50000  1
 Ni  Ni3  1  0.15396  0.58845  0.50000  1
 Ni  Ni4  1  0.91155  0.65396  0.00000  1
 Ni  Ni5  1  0.41155  0.84604  0.50000  1
 Ni  Ni6  1  0.58845  0.15396  0.50000  1
 Ni  Ni7  1  0.34604  0.08845  0.00000  1
 Ni  Ni8  1  0.65396  0.91155  0.00000  1
