CIF file written using JARVIS-Tools package.
data_MnNb4S8
_symmetry_space_group_name_H-M  'P6_3/mmc'
_cell_length_a       6.67176
_cell_length_b       6.67176
_cell_length_c       11.7689
_cell_angle_alpha    90
_cell_angle_beta     90
_cell_angle_gamma    120

_symmetry_Int_Tables_number  194
_chemical_formula_structural  MnNb4S8
_chemical_formula_sum  Mn2Nb8S6
_cell_volume  453.67677127167065
_cell_formula_units_Z  2
loop_
  _symmetry_equiv_pos_site_id
 _symmetry_equiv_pos_as_xyz
 1  'x, y, z'
loop_
 _atom_site_type_symbol
 _atom_site_label
 _atom_site_symmetry_multiplicity
 _atom_site_fract_x
 _atom_site_fract_y
 _atom_site_fract_z
 _atom_site_fract_occupancy
 Mn  Mn1  1  0.00000  0.00000  0.00000  1
 Mn  Mn2  1  0.00000  0.00000  0.50000  1
 Nb  Nb1  1  0.98908  0.49454  0.75000  1
 Nb  Nb2  1  0.49454  0.98908  0.25000  1
 Nb  Nb3  1  0.49454  0.50546  0.25000  1
 Nb  Nb4  1  0.50546  0.01092  0.75000  1
 Nb  Nb5  1  0.00000  0.00000  0.25000  1
 Nb  Nb6  1  0.00000  0.00000  0.75000  1
 Nb  Nb7  1  0.01092  0.50546  0.25000  1
 Nb  Nb8  1  0.50546  0.49454  0.75000  1
 S  S1  1  0.83557  0.16443  0.11515  1
 S  S2  1  0.33333  0.66667  0.38732  1
 S  S3  1  0.66667  0.33333  0.88732  1
 S  S4  1  0.16443  0.83557  0.88485  1
 S  S5  1  0.33333  0.66667  0.11268  1
 S  S6  1  0.67114  0.83557  0.61515  1
 S  S7  1  0.66667  0.33333  0.61268  1
 S  S8  1  0.83557  0.67114  0.38485  1
 S  S9  1  0.32886  0.16443  0.11515  1
 S  S10  1  0.67114  0.83557  0.88485  1
 S  S11  1  0.83557  0.16443  0.38485  1
 S  S12  1  0.83557  0.67114  0.11515  1
 S  S13  1  0.16443  0.32886  0.88485  1
 S  S14  1  0.16443  0.83557  0.61515  1
 S  S15  1  0.16443  0.32886  0.61515  1
 S  S16  1  0.32886  0.16443  0.38485  1
