CIF file written using JARVIS-Tools package.
data_Dy2PbS4
_symmetry_space_group_name_H-M  'I-42d'
_cell_length_a       7.35697
_cell_length_b       7.35697
_cell_length_c       7.35697
_cell_angle_alpha    109.361
_cell_angle_beta     109.692
_cell_angle_gamma    109.361

_symmetry_Int_Tables_number  122
_chemical_formula_structural  Dy2PbS4
_chemical_formula_sum  Dy4Pb2S8
_cell_volume  306.52876013983615
_cell_formula_units_Z  2
loop_
  _symmetry_equiv_pos_site_id
 _symmetry_equiv_pos_as_xyz
 1  'x, y, z'
loop_
 _atom_site_type_symbol
 _atom_site_label
 _atom_site_symmetry_multiplicity
 _atom_site_fract_x
 _atom_site_fract_y
 _atom_site_fract_z
 _atom_site_fract_occupancy
 Dy  Dy1  1  0.25000  0.63012  0.38012  1
 Dy  Dy2  1  0.61988  0.36988  0.25000  1
 Dy  Dy3  1  0.75000  0.86988  0.11988  1
 Dy  Dy4  1  0.88012  0.13012  0.75000  1
 Pb  Pb1  1  0.12500  0.75000  0.87500  1
 Pb  Pb2  1  0.37500  0.25000  0.62500  1
 S  S1  1  0.98194  0.84857  0.48612  1
 S  S2  1  0.98612  0.34857  0.48194  1
 S  S3  1  0.13337  0.15143  0.13755  1
 S  S4  1  0.36663  0.50418  0.01806  1
 S  S5  1  0.51806  0.00418  0.86663  1
 S  S6  1  0.63755  0.65143  0.63337  1
 S  S7  1  0.51388  0.99582  0.36245  1
 S  S8  1  0.86245  0.49582  0.01388  1
