CIF file written using JARVIS-Tools package.
data_AgSbF6
_symmetry_space_group_name_H-M  'Ia-3'
_cell_length_a       8.45476
_cell_length_b       8.45476
_cell_length_c       8.45476
_cell_angle_alpha    109.471
_cell_angle_beta     109.471
_cell_angle_gamma    109.471

_symmetry_Int_Tables_number  206
_chemical_formula_structural  AgSbF6
_chemical_formula_sum  Ag4Sb4F24
_cell_volume  465.24548681014653
_cell_formula_units_Z  4
loop_
  _symmetry_equiv_pos_site_id
 _symmetry_equiv_pos_as_xyz
 1  'x, y, z'
loop_
 _atom_site_type_symbol
 _atom_site_label
 _atom_site_symmetry_multiplicity
 _atom_site_fract_x
 _atom_site_fract_y
 _atom_site_fract_z
 _atom_site_fract_occupancy
 Ag  Ag1  1  0.00000  0.50000  -0.00000  1
 Ag  Ag2  1  0.50000  0.00000  -0.00000  1
 Ag  Ag3  1  0.00000  0.00000  0.50000  1
 Ag  Ag4  1  0.50000  0.50000  0.50000  1
 F  F1  1  0.58650  0.32334  0.03348  1
 F  F2  1  0.17666  0.76315  0.71013  1
 F  F3  1  0.91350  0.94698  0.73685  1
 F  F4  1  0.46652  0.78987  0.55302  1
 F  F5  1  0.05302  0.26315  0.08650  1
 F  F6  1  0.67666  0.96652  0.41350  1
 F  F7  1  0.94698  0.73685  0.91350  1
 F  F8  1  0.44698  0.53348  0.21013  1
 F  F9  1  0.21013  0.44698  0.53348  1
 F  F10  1  0.26315  0.08650  0.05302  1
 F  F11  1  0.23685  0.28987  0.82334  1
 F  F12  1  0.28987  0.82334  0.23685  1
 F  F13  1  0.71013  0.17666  0.76315  1
 F  F14  1  0.78987  0.55302  0.46652  1
 F  F15  1  0.32334  0.03348  0.58650  1
 F  F16  1  0.73685  0.91350  0.94698  1
 F  F17  1  0.76315  0.71013  0.17666  1
 F  F18  1  0.03348  0.58650  0.32334  1
 F  F19  1  0.53348  0.21013  0.44698  1
 F  F20  1  0.08650  0.05302  0.26315  1
 F  F21  1  0.82334  0.23685  0.28987  1
 F  F22  1  0.41350  0.67666  0.96652  1
 F  F23  1  0.96652  0.41350  0.67666  1
 F  F24  1  0.55302  0.46652  0.78987  1
 Sb  Sb1  1  0.50000  0.00000  0.50000  1
 Sb  Sb2  1  0.00000  0.00000  0.00000  1
 Sb  Sb3  1  0.00000  0.50000  0.50000  1
 Sb  Sb4  1  0.50000  0.50000  -0.00000  1
