CIF file written using JARVIS-Tools package.
data_K2AgI3
_symmetry_space_group_name_H-M  'Pnma'
_cell_length_a       4.74645
_cell_length_b       9.97247
_cell_length_c       19.4156
_cell_angle_alpha    90
_cell_angle_beta     90
_cell_angle_gamma    90

_symmetry_Int_Tables_number  62
_chemical_formula_structural  K2AgI3
_chemical_formula_sum  K8Ag4I2
_cell_volume  919.015853672613
_cell_formula_units_Z  4
loop_
  _symmetry_equiv_pos_site_id
 _symmetry_equiv_pos_as_xyz
 1  'x, y, z'
loop_
 _atom_site_type_symbol
 _atom_site_label
 _atom_site_symmetry_multiplicity
 _atom_site_fract_x
 _atom_site_fract_y
 _atom_site_fract_z
 _atom_site_fract_occupancy
 Ag  Ag1  1  0.25000  0.13197  0.86302  1
 Ag  Ag2  1  0.75000  0.36803  0.36302  1
 Ag  Ag3  1  0.75000  0.86803  0.13698  1
 Ag  Ag4  1  0.25000  0.63197  0.63698  1
 I  I1  1  0.25000  0.88696  0.57108  1
 I  I2  1  0.75000  0.11304  0.42892  1
 I  I3  1  0.25000  0.01100  0.09820  1
 I  I4  1  0.75000  0.61304  0.07108  1
 I  I5  1  0.25000  0.38696  0.92892  1
 I  I6  1  0.75000  0.30538  0.21973  1
 I  I7  1  0.25000  0.19462  0.71973  1
 I  I8  1  0.25000  0.51100  0.40180  1
 I  I9  1  0.75000  0.98900  0.90180  1
 I  I10  1  0.75000  0.48900  0.59820  1
 I  I11  1  0.75000  0.80538  0.28027  1
 I  I12  1  0.25000  0.69462  0.78027  1
 K  K1  1  0.25000  0.57342  0.21276  1
 K  K2  1  0.75000  0.92658  0.71276  1
 K  K3  1  0.25000  0.07342  0.28724  1
 K  K4  1  0.75000  0.42658  0.78724  1
 K  K5  1  0.25000  0.75098  0.96246  1
 K  K6  1  0.75000  0.24902  0.03754  1
 K  K7  1  0.25000  0.25098  0.53754  1
 K  K8  1  0.75000  0.74902  0.46246  1
