CIF file written using JARVIS-Tools package.
data_ZrMnTlF7
_symmetry_space_group_name_H-M  'Cmcm'
_cell_length_a       6.45299
_cell_length_b       8.32292
_cell_length_c       6.45272
_cell_angle_alpha    90
_cell_angle_beta     117.353
_cell_angle_gamma    90

_symmetry_Int_Tables_number  63
_chemical_formula_structural  ZrMnTlF7
_chemical_formula_sum  Zr2Mn2Tl2F4
_cell_volume  307.8140149708013
_cell_formula_units_Z  2
loop_
  _symmetry_equiv_pos_site_id
 _symmetry_equiv_pos_as_xyz
 1  'x, y, z'
loop_
 _atom_site_type_symbol
 _atom_site_label
 _atom_site_symmetry_multiplicity
 _atom_site_fract_x
 _atom_site_fract_y
 _atom_site_fract_z
 _atom_site_fract_occupancy
 F  F1  1  0.33830  0.25000  0.55613  1
 F  F2  1  0.05643  0.75000  0.83847  1
 F  F3  1  0.69905  0.49509  0.80089  1
 F  F4  1  0.03122  0.25000  0.83566  1
 F  F5  1  0.66170  0.75000  0.44387  1
 F  F6  1  0.96878  0.75000  0.16434  1
 F  F7  1  0.66425  0.25000  0.46863  1
 F  F8  1  0.30095  0.99509  0.19911  1
 F  F9  1  0.49666  0.75000  0.00370  1
 F  F10  1  0.94357  0.25000  0.16153  1
 F  F11  1  0.69905  0.00491  0.80089  1
 F  F12  1  0.50334  0.25000  0.99630  1
 F  F13  1  0.33575  0.75000  0.53137  1
 F  F14  1  0.30095  0.50491  0.19911  1
 Mn  Mn1  1  0.30872  0.25000  0.19112  1
 Mn  Mn2  1  0.69128  0.75000  0.80888  1
 Tl  Tl1  1  -0.00000  0.00000  0.50000  1
 Tl  Tl2  1  -0.00000  0.50000  0.50000  1
 Zr  Zr1  1  0.69004  0.25000  0.80978  1
 Zr  Zr2  1  0.30996  0.75000  0.19022  1
