CIF file written using JARVIS-Tools package.
data_SiP2
_symmetry_space_group_name_H-M  'Pa-3'
_cell_length_a       5.78328
_cell_length_b       5.78328
_cell_length_c       5.78328
_cell_angle_alpha    90
_cell_angle_beta     90
_cell_angle_gamma    90

_symmetry_Int_Tables_number  205
_chemical_formula_structural  SiP2
_chemical_formula_sum  Si4P8
_cell_volume  193.42953294277
_cell_formula_units_Z  4
loop_
  _symmetry_equiv_pos_site_id
 _symmetry_equiv_pos_as_xyz
 1  'x, y, z'
loop_
 _atom_site_type_symbol
 _atom_site_label
 _atom_site_symmetry_multiplicity
 _atom_site_fract_x
 _atom_site_fract_y
 _atom_site_fract_z
 _atom_site_fract_occupancy
 P  P1  1  0.60871  0.60871  0.60871  1
 P  P2  1  0.89129  0.39129  0.10871  1
 P  P3  1  0.10871  0.89129  0.39129  1
 P  P4  1  0.39129  0.10871  0.89129  1
 P  P5  1  0.60871  0.89129  0.10871  1
 P  P6  1  0.89129  0.10871  0.60871  1
 P  P7  1  0.10871  0.60871  0.89129  1
 P  P8  1  0.39129  0.39129  0.39129  1
 Si  Si1  1  0.00000  0.50000  0.50000  1
 Si  Si2  1  0.50000  0.50000  0.00000  1
 Si  Si3  1  0.50000  0.00000  0.50000  1
 Si  Si4  1  0.00000  0.00000  0.00000  1
