CIF file written using JARVIS-Tools package.
data_Al3Cr3Sb2O16
_symmetry_space_group_name_H-M  'Cm'
_cell_length_a       5.73414
_cell_length_b       5.73422
_cell_length_c       9.2736
_cell_angle_alpha    89.4128
_cell_angle_beta     89.4098
_cell_angle_gamma    60.1432

_symmetry_Int_Tables_number  8
_chemical_formula_structural  Al3Cr3Sb2O16
_chemical_formula_sum  Al3Cr3Sb2O6
_cell_volume  264.4328378050872
_cell_formula_units_Z  1
loop_
  _symmetry_equiv_pos_site_id
 _symmetry_equiv_pos_as_xyz
 1  'x, y, z'
loop_
 _atom_site_type_symbol
 _atom_site_label
 _atom_site_symmetry_multiplicity
 _atom_site_fract_x
 _atom_site_fract_y
 _atom_site_fract_z
 _atom_site_fract_occupancy
 Al  Al1  1  0.16502  0.16496  0.79528  1
 Al  Al2  1  0.33729  0.83286  0.29594  1
 Al  Al3  1  0.83276  0.33742  0.29594  1
 Cr  Cr1  1  0.16661  0.65750  0.78397  1
 Cr  Cr2  1  0.65757  0.16650  0.78385  1
 Cr  Cr3  1  0.83244  0.83263  0.27349  1
 O  O1  1  0.16751  0.67123  0.39679  1
 O  O2  1  0.48180  0.48172  0.66104  1
 O  O3  1  0.33321  0.33302  0.89433  1
 O  O4  1  0.52218  0.52226  0.17170  1
 O  O5  1  0.00108  0.00117  0.19789  1
 O  O6  1  0.67105  0.16768  0.39676  1
 O  O7  1  -0.00167  -0.00175  0.69760  1
 O  O8  1  0.47737  0.04219  0.66633  1
 O  O9  1  0.52632  0.96611  0.16065  1
 O  O10  1  0.16326  0.16339  0.39545  1
 O  O11  1  0.04223  0.47732  0.66640  1
 O  O12  1  0.96607  0.52638  0.16068  1
 O  O13  1  0.67707  0.67722  0.38963  1
 O  O14  1  0.32693  0.83434  0.89596  1
 O  O15  1  0.83066  0.83055  0.89143  1
 O  O16  1  0.83443  0.32681  0.89598  1
 Sb  Sb1  1  0.65815  0.65805  0.01238  1
 Sb  Sb2  1  0.33046  0.33063  0.50482  1
