CIF file written using JARVIS-Tools package.
data_MgCuP
_symmetry_space_group_name_H-M  'Pnma'
_cell_length_a       3.85365
_cell_length_b       6.5604
_cell_length_c       7.17481
_cell_angle_alpha    90
_cell_angle_beta     90
_cell_angle_gamma    90

_symmetry_Int_Tables_number  62
_chemical_formula_structural  MgCuP
_chemical_formula_sum  Mg4Cu4P4
_cell_volume  181.3901273718913
_cell_formula_units_Z  4
loop_
  _symmetry_equiv_pos_site_id
 _symmetry_equiv_pos_as_xyz
 1  'x, y, z'
loop_
 _atom_site_type_symbol
 _atom_site_label
 _atom_site_symmetry_multiplicity
 _atom_site_fract_x
 _atom_site_fract_y
 _atom_site_fract_z
 _atom_site_fract_occupancy
 Cu  Cu1  1  0.25000  0.12481  0.56186  1
 Cu  Cu2  1  0.25000  0.62481  0.93814  1
 Cu  Cu3  1  0.75000  0.37519  0.06186  1
 Cu  Cu4  1  0.75000  0.87519  0.43814  1
 Mg  Mg1  1  0.75000  0.46627  0.68054  1
 Mg  Mg2  1  0.25000  0.53373  0.31946  1
 Mg  Mg3  1  0.75000  0.96627  0.81946  1
 Mg  Mg4  1  0.25000  0.03373  0.18054  1
 P  P1  1  0.75000  0.24983  0.37814  1
 P  P2  1  0.25000  0.25017  0.87814  1
 P  P3  1  0.25000  0.75017  0.62186  1
 P  P4  1  0.75000  0.74983  0.12186  1
