CIF file written using JARVIS-Tools package.
data_Co4B6O13
_symmetry_space_group_name_H-M  'I-43m'
_cell_length_a       6.48685
_cell_length_b       6.48685
_cell_length_c       6.48685
_cell_angle_alpha    109.471
_cell_angle_beta     109.471
_cell_angle_gamma    109.471

_symmetry_Int_Tables_number  217
_chemical_formula_structural  Co4B6O13
_chemical_formula_sum  Co4B6O3
_cell_volume  210.12577848508974
_cell_formula_units_Z  1
loop_
  _symmetry_equiv_pos_site_id
 _symmetry_equiv_pos_as_xyz
 1  'x, y, z'
loop_
 _atom_site_type_symbol
 _atom_site_label
 _atom_site_symmetry_multiplicity
 _atom_site_fract_x
 _atom_site_fract_y
 _atom_site_fract_z
 _atom_site_fract_occupancy
 B  B1  1  0.50000  0.25000  0.75000  1
 B  B2  1  0.50000  0.75000  0.25000  1
 B  B3  1  0.25000  0.75000  0.50000  1
 B  B4  1  0.75000  0.25000  0.50000  1
 B  B5  1  0.25000  0.50000  0.75000  1
 B  B6  1  0.75000  0.50000  0.25000  1
 Co  Co1  1  0.30191  0.30191  0.30191  1
 Co  Co2  1  0.00000  0.69809  0.00000  1
 Co  Co3  1  0.00000  0.00000  0.69809  1
 Co  Co4  1  0.69809  -0.00000  -0.00000  1
 O  O1  1  0.72532  0.44483  -0.00000  1
 O  O2  1  0.00000  0.72532  0.44483  1
 O  O3  1  0.44483  0.72532  0.00000  1
 O  O4  1  0.27468  0.71951  0.27468  1
 O  O5  1  0.44483  -0.00000  0.72532  1
 O  O6  1  0.00000  0.00000  0.00000  1
 O  O7  1  0.55517  0.28049  0.55517  1
 O  O8  1  0.27468  0.27468  0.71951  1
 O  O9  1  0.71951  0.27468  0.27468  1
 O  O10  1  0.00000  0.44483  0.72532  1
 O  O11  1  0.55517  0.55517  0.28049  1
 O  O12  1  0.28049  0.55517  0.55517  1
 O  O13  1  0.72532  -0.00000  0.44483  1
