CIF file written using JARVIS-Tools package.
data_BaH4I2O2
_symmetry_space_group_name_H-M  'C2/c'
_cell_length_a       6.72992
_cell_length_b       6.72992
_cell_length_c       8.62329
_cell_angle_alpha    71.2886
_cell_angle_beta     71.2886
_cell_angle_gamma    68.1485

_symmetry_Int_Tables_number  15
_chemical_formula_structural  BaH4I2O2
_chemical_formula_sum  Ba2H8I4O4
_cell_volume  334.21221619133706
_cell_formula_units_Z  2
loop_
  _symmetry_equiv_pos_site_id
 _symmetry_equiv_pos_as_xyz
 1  'x, y, z'
loop_
 _atom_site_type_symbol
 _atom_site_label
 _atom_site_symmetry_multiplicity
 _atom_site_fract_x
 _atom_site_fract_y
 _atom_site_fract_z
 _atom_site_fract_occupancy
 Ba  Ba1  1  0.59587  0.40413  0.25000  1
 Ba  Ba2  1  0.40413  0.59587  0.75000  1
 H  H1  1  0.12038  0.71445  0.45391  1
 H  H2  1  0.72830  0.13179  0.62360  1
 H  H3  1  0.86821  0.27170  0.87640  1
 H  H4  1  0.13179  0.72830  0.12360  1
 H  H5  1  0.28555  0.87962  0.04609  1
 H  H6  1  0.71445  0.12038  0.95391  1
 H  H7  1  0.87962  0.28555  0.54609  1
 H  H8  1  0.27170  0.86821  0.37640  1
 I  I1  1  0.80737  0.76963  0.84997  1
 I  I2  1  0.23037  0.19263  0.65003  1
 I  I3  1  0.76963  0.80737  0.34997  1
 I  I4  1  0.19263  0.23037  0.15003  1
 O  O1  1  0.72924  0.28247  0.55715  1
 O  O2  1  0.27076  0.71753  0.44285  1
 O  O3  1  0.71753  0.27076  0.94285  1
 O  O4  1  0.28247  0.72924  0.05715  1
