CIF file written using JARVIS-Tools package.
data_YNi3Se2ClO8
_symmetry_space_group_name_H-M  'Pmmn'
_cell_length_a       6.8423
_cell_length_b       6.2897
_cell_length_c       9.43611
_cell_angle_alpha    90
_cell_angle_beta     90.0016
_cell_angle_gamma    90

_symmetry_Int_Tables_number  59
_chemical_formula_structural  YNi3Se2ClO8
_chemical_formula_sum  Y2Ni6Se4Cl2O6
_cell_volume  406.0922086757536
_cell_formula_units_Z  2
loop_
  _symmetry_equiv_pos_site_id
 _symmetry_equiv_pos_as_xyz
 1  'x, y, z'
loop_
 _atom_site_type_symbol
 _atom_site_label
 _atom_site_symmetry_multiplicity
 _atom_site_fract_x
 _atom_site_fract_y
 _atom_site_fract_z
 _atom_site_fract_occupancy
 Cl  Cl1  1  0.82688  0.25000  0.75000  1
 Cl  Cl2  1  0.17312  0.75000  0.25000  1
 Ni  Ni1  1  0.00000  0.50000  0.00000  1
 Ni  Ni2  1  0.00000  0.50000  0.50000  1
 Ni  Ni3  1  0.00000  0.00000  0.00000  1
 Ni  Ni4  1  0.20859  0.25000  0.25000  1
 Ni  Ni5  1  0.79141  0.75000  0.75000  1
 Ni  Ni6  1  0.00000  0.00000  0.50000  1
 O  O1  1  0.25055  0.03469  0.58811  1
 O  O2  1  0.98473  0.75000  0.88992  1
 O  O3  1  0.74945  0.96531  0.41189  1
 O  O4  1  0.57402  0.75000  0.87888  1
 O  O5  1  0.25055  0.46531  0.91189  1
 O  O6  1  0.42598  0.25000  0.37887  1
 O  O7  1  0.25055  0.03469  0.91189  1
 O  O8  1  0.42598  0.25000  0.12112  1
 O  O9  1  0.74945  0.53469  0.41189  1
 O  O10  1  0.74945  0.96531  0.08811  1
 O  O11  1  0.57402  0.75000  0.62113  1
 O  O12  1  0.01527  0.25000  0.38992  1
 O  O13  1  0.74945  0.53469  0.08811  1
 O  O14  1  0.25055  0.46531  0.58811  1
 O  O15  1  0.01527  0.25000  0.11008  1
 O  O16  1  0.98473  0.75000  0.61008  1
 Se  Se1  1  0.59241  0.75000  0.06255  1
 Se  Se2  1  0.40759  0.25000  0.93745  1
 Se  Se3  1  0.40759  0.25000  0.56255  1
 Se  Se4  1  0.59241  0.75000  0.43745  1
 Y  Y1  1  0.73804  0.25000  0.25000  1
 Y  Y2  1  0.26196  0.75000  0.75000  1
