CIF file written using JARVIS-Tools package.
data_MnPO4
_symmetry_space_group_name_H-M  'Cc'
_cell_length_a       5.1247
_cell_length_b       8.8776
_cell_length_c       5.12471
_cell_angle_alpha    66.5887
_cell_angle_beta     55.0391
_cell_angle_gamma    66.5887

_symmetry_Int_Tables_number  9
_chemical_formula_structural  MnPO4
_chemical_formula_sum  Mn2P2O8
_cell_volume  170.82592736063145
_cell_formula_units_Z  2
loop_
  _symmetry_equiv_pos_site_id
 _symmetry_equiv_pos_as_xyz
 1  'x, y, z'
loop_
 _atom_site_type_symbol
 _atom_site_label
 _atom_site_symmetry_multiplicity
 _atom_site_fract_x
 _atom_site_fract_y
 _atom_site_fract_z
 _atom_site_fract_occupancy
 Mn  Mn1  1  0.19880  0.25876  0.28693  1
 Mn  Mn2  1  0.78693  0.75876  0.69880  1
 O  O1  1  0.03869  0.77671  0.24324  1
 O  O2  1  0.20322  0.45736  0.33434  1
 O  O3  1  0.27499  0.14669  0.99491  1
 O  O4  1  0.50940  0.11730  0.42018  1
 O  O5  1  0.49491  0.64669  0.77499  1
 O  O6  1  0.74324  0.27671  0.53869  1
 O  O7  1  0.92018  0.61730  0.00940  1
 O  O8  1  0.83434  0.95736  0.70322  1
 P  P1  1  0.16199  0.62622  0.08967  1
 P  P2  1  0.58967  0.12622  0.66199  1
