CIF file written using JARVIS-Tools package.
data_TbMnGe
_symmetry_space_group_name_H-M  'Pnma'
_cell_length_a       4.13303
_cell_length_b       7.09595
_cell_length_c       7.83002
_cell_angle_alpha    90
_cell_angle_beta     90
_cell_angle_gamma    90

_symmetry_Int_Tables_number  62
_chemical_formula_structural  TbMnGe
_chemical_formula_sum  Tb4Mn4Ge4
_cell_volume  229.63693514821907
_cell_formula_units_Z  4
loop_
  _symmetry_equiv_pos_site_id
 _symmetry_equiv_pos_as_xyz
 1  'x, y, z'
loop_
 _atom_site_type_symbol
 _atom_site_label
 _atom_site_symmetry_multiplicity
 _atom_site_fract_x
 _atom_site_fract_y
 _atom_site_fract_z
 _atom_site_fract_occupancy
 Ge  Ge1  1  0.25000  0.27724  0.61515  1
 Ge  Ge2  1  0.75000  0.22276  0.11515  1
 Ge  Ge3  1  0.25000  0.77724  0.88485  1
 Ge  Ge4  1  0.75000  0.72276  0.38485  1
 Mn  Mn1  1  0.75000  0.36638  0.44370  1
 Mn  Mn2  1  0.25000  0.13362  0.94370  1
 Mn  Mn3  1  0.75000  0.86638  0.05630  1
 Mn  Mn4  1  0.25000  0.63362  0.55630  1
 Tb  Tb1  1  0.25000  0.51816  0.18421  1
 Tb  Tb2  1  0.75000  0.48184  0.81579  1
 Tb  Tb3  1  0.25000  0.01816  0.31579  1
 Tb  Tb4  1  0.75000  0.98184  0.68421  1
