CIF file written using JARVIS-Tools package.
data_Ga3Pd7
_symmetry_space_group_name_H-M  'C2/m'
_cell_length_a       4.10724
_cell_length_b       5.53035
_cell_length_c       7.16406
_cell_angle_alpha    104.444
_cell_angle_beta     106.658
_cell_angle_gamma    90

_symmetry_Int_Tables_number  12
_chemical_formula_structural  Ga3Pd7
_chemical_formula_sum  Ga3Pd7
_cell_volume  150.5222927776768
_cell_formula_units_Z  1
loop_
  _symmetry_equiv_pos_site_id
 _symmetry_equiv_pos_as_xyz
 1  'x, y, z'
loop_
 _atom_site_type_symbol
 _atom_site_label
 _atom_site_symmetry_multiplicity
 _atom_site_fract_x
 _atom_site_fract_y
 _atom_site_fract_z
 _atom_site_fract_occupancy
 Ga  Ga1  1  0.00000  0.00000  0.00000  1
 Ga  Ga2  1  0.80891  0.33565  0.61783  1
 Ga  Ga3  1  0.19109  0.66435  0.38217  1
 Pd  Pd1  1  -0.00000  0.50000  0.00000  1
 Pd  Pd2  1  0.79433  0.86252  0.58867  1
 Pd  Pd3  1  0.20567  0.13748  0.41133  1
 Pd  Pd4  1  0.62648  0.38752  0.25295  1
 Pd  Pd5  1  0.37352  0.61248  0.74705  1
 Pd  Pd6  1  0.58127  0.85618  0.16253  1
 Pd  Pd7  1  0.41873  0.14382  0.83747  1
