CIF file written using JARVIS-Tools package.
data_Ba2CoSe2Cl2O6
_symmetry_space_group_name_H-M  'Pnnm'
_cell_length_a       5.39705
_cell_length_b       6.81453
_cell_length_c       12.6391
_cell_angle_alpha    90
_cell_angle_beta     90
_cell_angle_gamma    90

_symmetry_Int_Tables_number  58
_chemical_formula_structural  Ba2CoSe2Cl2O6
_chemical_formula_sum  Ba4Co2Se4Cl4O2
_cell_volume  464.84541614806506
_cell_formula_units_Z  2
loop_
  _symmetry_equiv_pos_site_id
 _symmetry_equiv_pos_as_xyz
 1  'x, y, z'
loop_
 _atom_site_type_symbol
 _atom_site_label
 _atom_site_symmetry_multiplicity
 _atom_site_fract_x
 _atom_site_fract_y
 _atom_site_fract_z
 _atom_site_fract_occupancy
 Ba  Ba1  1  0.50000  0.69758  0.73173  1
 Ba  Ba2  1  0.50000  0.30242  0.26827  1
 Ba  Ba3  1  0.00000  0.19758  0.76827  1
 Ba  Ba4  1  0.00000  0.80242  0.23173  1
 Cl  Cl1  1  0.50000  0.67728  0.10191  1
 Cl  Cl2  1  0.00000  0.82272  0.60191  1
 Cl  Cl3  1  0.00000  0.17728  0.39809  1
 Cl  Cl4  1  0.50000  0.32272  0.89809  1
 Co  Co1  1  0.00000  0.50000  0.50000  1
 Co  Co2  1  0.50000  0.00000  0.00000  1
 O  O1  1  0.00000  0.58527  0.82548  1
 O  O2  1  0.50000  0.91473  0.32548  1
 O  O3  1  0.24232  0.10039  0.10732  1
 O  O4  1  0.24232  0.89961  0.89268  1
 O  O5  1  0.74232  0.39961  0.60732  1
 O  O6  1  0.74232  0.60039  0.39268  1
 O  O7  1  0.00000  0.41473  0.17452  1
 O  O8  1  0.75768  0.89961  0.89268  1
 O  O9  1  0.75768  0.10039  0.10732  1
 O  O10  1  0.25768  0.39961  0.60732  1
 O  O11  1  0.50000  0.08527  0.67452  1
 O  O12  1  0.25768  0.60039  0.39268  1
 Se  Se1  1  0.50000  0.24245  0.57001  1
 Se  Se2  1  0.50000  0.75755  0.42999  1
 Se  Se3  1  0.00000  0.74245  0.92999  1
 Se  Se4  1  0.00000  0.25755  0.07001  1
