CIF file written using JARVIS-Tools package.
data_Lu3Ni7B2
_symmetry_space_group_name_H-M  'P6_3/mmc'
_cell_length_a       4.99769
_cell_length_b       4.99769
_cell_length_c       14.2232
_cell_angle_alpha    90
_cell_angle_beta     90
_cell_angle_gamma    120

_symmetry_Int_Tables_number  194
_chemical_formula_structural  Lu3Ni7B2
_chemical_formula_sum  Lu6Ni4B4
_cell_volume  307.65663647512037
_cell_formula_units_Z  2
loop_
  _symmetry_equiv_pos_site_id
 _symmetry_equiv_pos_as_xyz
 1  'x, y, z'
loop_
 _atom_site_type_symbol
 _atom_site_label
 _atom_site_symmetry_multiplicity
 _atom_site_fract_x
 _atom_site_fract_y
 _atom_site_fract_z
 _atom_site_fract_occupancy
 B  B1  1  0.00000  0.00000  0.00000  1
 B  B2  1  0.33333  0.66667  0.50000  1
 B  B3  1  0.00000  0.00000  0.50000  1
 B  B4  1  0.66667  0.33333  0.00000  1
 Lu  Lu1  1  0.66667  0.33333  0.50000  1
 Lu  Lu2  1  0.33333  0.66667  0.21685  1
 Lu  Lu3  1  0.66667  0.33333  0.71685  1
 Lu  Lu4  1  0.66667  0.33333  0.28315  1
 Lu  Lu5  1  0.33333  0.66667  0.78315  1
 Lu  Lu6  1  0.33333  0.66667  0.00000  1
 Ni  Ni1  1  0.16605  0.83395  0.39716  1
 Ni  Ni2  1  0.83395  0.66790  0.10285  1
 Ni  Ni3  1  0.00000  0.00000  0.75000  1
 Ni  Ni4  1  0.00000  0.00000  0.25000  1
 Ni  Ni5  1  0.16605  0.83395  0.60284  1
 Ni  Ni6  1  0.66790  0.83395  0.60284  1
 Ni  Ni7  1  0.16605  0.33210  0.60284  1
 Ni  Ni8  1  0.33210  0.16605  0.10285  1
 Ni  Ni9  1  0.83395  0.66790  0.89715  1
 Ni  Ni10  1  0.33210  0.16605  0.89715  1
 Ni  Ni11  1  0.66790  0.83395  0.39716  1
 Ni  Ni12  1  0.16605  0.33210  0.39716  1
 Ni  Ni13  1  0.83395  0.16605  0.10285  1
 Ni  Ni14  1  0.83395  0.16605  0.89715  1
