CIF file written using JARVIS-Tools package.
data_YbNd2S4
_symmetry_space_group_name_H-M  'I-42d'
_cell_length_a       7.38082
_cell_length_b       7.38082
_cell_length_c       7.38082
_cell_angle_alpha    109.599
_cell_angle_beta     109.216
_cell_angle_gamma    109.599

_symmetry_Int_Tables_number  122
_chemical_formula_structural  YbNd2S4
_chemical_formula_sum  Yb2Nd4S8
_cell_volume  309.5175049768785
_cell_formula_units_Z  2
loop_
  _symmetry_equiv_pos_site_id
 _symmetry_equiv_pos_as_xyz
 1  'x, y, z'
loop_
 _atom_site_type_symbol
 _atom_site_label
 _atom_site_symmetry_multiplicity
 _atom_site_fract_x
 _atom_site_fract_y
 _atom_site_fract_z
 _atom_site_fract_occupancy
 Nd  Nd1  1  0.25000  0.62810  0.37810  1
 Nd  Nd2  1  0.62190  0.37190  0.25000  1
 Nd  Nd3  1  0.75000  0.87190  0.12190  1
 Nd  Nd4  1  0.87810  0.12810  0.75000  1
 S  S1  1  0.14689  0.14471  0.14440  1
 S  S2  1  0.50031  0.00249  0.35560  1
 S  S3  1  0.35311  0.49751  0.99782  1
 S  S4  1  0.64440  0.64471  0.64689  1
 S  S5  1  0.49782  0.99751  0.85311  1
 S  S6  1  0.00218  0.85529  0.49969  1
 S  S7  1  0.85560  0.50249  0.00031  1
 S  S8  1  0.99969  0.35529  0.50218  1
 Yb  Yb1  1  0.12500  0.75000  0.87500  1
 Yb  Yb2  1  0.37500  0.25000  0.62500  1
