CIF file written using JARVIS-Tools package.
data_TbMoClO4
_symmetry_space_group_name_H-M  'C2/m'
_cell_length_a       6.29847
_cell_length_b       6.29847
_cell_length_c       6.86665
_cell_angle_alpha    76.0196
_cell_angle_beta     76.0196
_cell_angle_gamma    70.595

_symmetry_Int_Tables_number  12
_chemical_formula_structural  TbMoClO4
_chemical_formula_sum  Tb2Mo2Cl2O8
_cell_volume  245.41613163187503
_cell_formula_units_Z  2
loop_
  _symmetry_equiv_pos_site_id
 _symmetry_equiv_pos_as_xyz
 1  'x, y, z'
loop_
 _atom_site_type_symbol
 _atom_site_label
 _atom_site_symmetry_multiplicity
 _atom_site_fract_x
 _atom_site_fract_y
 _atom_site_fract_z
 _atom_site_fract_occupancy
 Cl  Cl1  1  0.00925  0.00925  0.23832  1
 Cl  Cl2  1  0.99075  0.99075  0.76168  1
 Mo  Mo1  1  0.36251  0.36251  0.26968  1
 Mo  Mo2  1  0.63749  0.63749  0.73032  1
 O  O1  1  0.29450  0.29450  0.53522  1
 O  O2  1  0.51000  0.88837  0.84669  1
 O  O3  1  0.70550  0.70550  0.46478  1
 O  O4  1  0.45848  0.45848  0.79748  1
 O  O5  1  0.11163  0.49000  0.15331  1
 O  O6  1  0.88837  0.51000  0.84669  1
 O  O7  1  0.49000  0.11163  0.15331  1
 O  O8  1  0.54152  0.54152  0.20252  1
 Tb  Tb1  1  0.22177  0.22177  0.89079  1
 Tb  Tb2  1  0.77823  0.77823  0.10921  1
