CIF file written using JARVIS-Tools package.
data_RbTaGe3O9
_symmetry_space_group_name_H-M  'P-6c2'
_cell_length_a       7.11682
_cell_length_b       7.11682
_cell_length_c       10.2949
_cell_angle_alpha    90
_cell_angle_beta     90
_cell_angle_gamma    120

_symmetry_Int_Tables_number  188
_chemical_formula_structural  RbTaGe3O9
_chemical_formula_sum  Rb2Ta2Ge6O8
_cell_volume  451.57157918720696
_cell_formula_units_Z  2
loop_
  _symmetry_equiv_pos_site_id
 _symmetry_equiv_pos_as_xyz
 1  'x, y, z'
loop_
 _atom_site_type_symbol
 _atom_site_label
 _atom_site_symmetry_multiplicity
 _atom_site_fract_x
 _atom_site_fract_y
 _atom_site_fract_z
 _atom_site_fract_occupancy
 Ge  Ge1  1  0.07498  0.78511  0.75000  1
 Ge  Ge2  1  0.71013  0.92502  0.75000  1
 Ge  Ge3  1  0.21489  0.28987  0.75000  1
 Ge  Ge4  1  0.21489  0.92502  0.25000  1
 Ge  Ge5  1  0.07498  0.28987  0.25000  1
 Ge  Ge6  1  0.71013  0.78511  0.25000  1
 O  O1  1  0.09980  0.65957  0.89031  1
 O  O2  1  0.26721  0.19835  0.25000  1
 O  O3  1  0.93114  0.73279  0.25000  1
 O  O4  1  0.80165  0.06886  0.25000  1
 O  O5  1  0.09980  0.44023  0.39031  1
 O  O6  1  0.93114  0.19835  0.75000  1
 O  O7  1  0.26721  0.06886  0.75000  1
 O  O8  1  0.09980  0.44023  0.10969  1
 O  O9  1  0.80165  0.73279  0.75000  1
 O  O10  1  0.55977  0.65957  0.39031  1
 O  O11  1  0.55977  0.90020  0.60969  1
 O  O12  1  0.55977  0.90020  0.89031  1
 O  O13  1  0.34043  0.44023  0.89031  1
 O  O14  1  0.34043  0.90020  0.39031  1
 O  O15  1  0.34043  0.44023  0.60969  1
 O  O16  1  0.09980  0.65957  0.60969  1
 O  O17  1  0.55977  0.65957  0.10969  1
 O  O18  1  0.34043  0.90020  0.10969  1
 Rb  Rb1  1  0.66667  0.33333  0.50000  1
 Rb  Rb2  1  0.66667  0.33333  0.00000  1
 Ta  Ta1  1  0.33333  0.66667  0.50000  1
 Ta  Ta2  1  0.33333  0.66667  0.00000  1
