CIF file written using JARVIS-Tools package.
data_Ca2FeClO3
_symmetry_space_group_name_H-M  'P4/nmm'
_cell_length_a       3.7963
_cell_length_b       3.7963
_cell_length_c       13.8292
_cell_angle_alpha    90
_cell_angle_beta     90
_cell_angle_gamma    90

_symmetry_Int_Tables_number  129
_chemical_formula_structural  Ca2FeClO3
_chemical_formula_sum  Ca4Fe2Cl2O6
_cell_volume  199.3049236501116
_cell_formula_units_Z  2
loop_
  _symmetry_equiv_pos_site_id
 _symmetry_equiv_pos_as_xyz
 1  'x, y, z'
loop_
 _atom_site_type_symbol
 _atom_site_label
 _atom_site_symmetry_multiplicity
 _atom_site_fract_x
 _atom_site_fract_y
 _atom_site_fract_z
 _atom_site_fract_occupancy
 Ca  Ca1  1  0.00000  0.00000  0.66120  1
 Ca  Ca2  1  0.00000  0.00000  0.90674  1
 Ca  Ca3  1  0.50000  0.50000  0.09327  1
 Ca  Ca4  1  0.50000  0.50000  0.33879  1
 Cl  Cl1  1  0.00000  0.00000  0.42295  1
 Cl  Cl2  1  0.50000  0.50000  0.57703  1
 Fe  Fe1  1  0.00000  0.00000  0.20848  1
 Fe  Fe2  1  0.50000  0.50000  0.79152  1
 O  O1  1  0.50000  0.00000  0.22966  1
 O  O2  1  0.50000  0.50000  0.93122  1
 O  O3  1  0.00000  0.00000  0.06878  1
 O  O4  1  0.50000  0.00000  0.77033  1
 O  O5  1  0.00000  0.50000  0.22966  1
 O  O6  1  0.00000  0.50000  0.77033  1
