CIF file written using JARVIS-Tools package.
data_NiB4O7
_symmetry_space_group_name_H-M  'Cmcm'
_cell_length_a       5.21139
_cell_length_b       6.31707
_cell_length_c       6.31706
_cell_angle_alpha    119.596
_cell_angle_beta     90
_cell_angle_gamma    90

_symmetry_Int_Tables_number  63
_chemical_formula_structural  NiB4O7
_chemical_formula_sum  Ni2B8O4
_cell_volume  180.82926583477848
_cell_formula_units_Z  2
loop_
  _symmetry_equiv_pos_site_id
 _symmetry_equiv_pos_as_xyz
 1  'x, y, z'
loop_
 _atom_site_type_symbol
 _atom_site_label
 _atom_site_symmetry_multiplicity
 _atom_site_fract_x
 _atom_site_fract_y
 _atom_site_fract_z
 _atom_site_fract_occupancy
 B  B1  1  0.25000  0.93436  0.70314  1
 B  B2  1  0.00000  0.70080  0.29920  1
 B  B3  1  0.50000  0.70080  0.29920  1
 B  B4  1  0.75000  0.29686  0.06564  1
 B  B5  1  0.00000  0.29920  0.70080  1
 B  B6  1  0.25000  0.70314  0.93436  1
 B  B7  1  0.75000  0.06564  0.29686  1
 B  B8  1  0.50000  0.29920  0.70080  1
 Ni  Ni1  1  0.75000  0.73750  0.73750  1
 Ni  Ni2  1  0.25000  0.26250  0.26250  1
 O  O1  1  0.25000  0.20089  0.75457  1
 O  O2  1  0.52346  0.43868  0.18686  1
 O  O3  1  0.25000  0.75457  0.20089  1
 O  O4  1  0.47654  0.56132  0.81314  1
 O  O5  1  0.75000  0.06302  0.06302  1
 O  O6  1  0.02346  0.81314  0.56132  1
 O  O7  1  0.52346  0.18686  0.43868  1
 O  O8  1  0.02346  0.56132  0.81314  1
 O  O9  1  0.75000  0.24543  0.79911  1
 O  O10  1  0.75000  0.79911  0.24543  1
 O  O11  1  0.97654  0.18686  0.43868  1
 O  O12  1  0.97654  0.43868  0.18686  1
 O  O13  1  0.25000  0.93698  0.93698  1
 O  O14  1  0.47654  0.81314  0.56132  1
