CIF file written using JARVIS-Tools package.
data_Hf3Al3C5
_symmetry_space_group_name_H-M  'P6_3/mmc'
_cell_length_a       3.32848
_cell_length_b       3.32848
_cell_length_c       27.5244
_cell_angle_alpha    90
_cell_angle_beta     90
_cell_angle_gamma    120

_symmetry_Int_Tables_number  194
_chemical_formula_structural  Hf3Al3C5
_chemical_formula_sum  Hf6Al6C0
_cell_volume  264.08375133455854
_cell_formula_units_Z  2
loop_
  _symmetry_equiv_pos_site_id
 _symmetry_equiv_pos_as_xyz
 1  'x, y, z'
loop_
 _atom_site_type_symbol
 _atom_site_label
 _atom_site_symmetry_multiplicity
 _atom_site_fract_x
 _atom_site_fract_y
 _atom_site_fract_z
 _atom_site_fract_occupancy
 Al  Al1  1  0.66667  0.33333  0.17604  1
 Al  Al2  1  0.00000  0.00000  0.75000  1
 Al  Al3  1  0.33333  0.66667  0.82396  1
 Al  Al4  1  0.66667  0.33333  0.32396  1
 Al  Al5  1  0.33333  0.66667  0.67604  1
 Al  Al6  1  0.00000  0.00000  0.25000  1
 C  C1  1  0.00000  0.00000  0.34958  1
 C  C2  1  0.33333  0.66667  0.54945  1
 C  C3  1  0.66667  0.33333  0.45055  1
 C  C4  1  0.66667  0.33333  0.04945  1
 C  C5  1  0.00000  0.00000  0.65042  1
 C  C6  1  0.00000  0.00000  0.15042  1
 C  C7  1  0.33333  0.66667  0.95055  1
 C  C8  1  0.33333  0.66667  0.75000  1
 C  C9  1  0.00000  0.00000  0.84958  1
 C  C10  1  0.66667  0.33333  0.25000  1
 Hf  Hf1  1  0.00000  0.00000  0.50000  1
 Hf  Hf2  1  0.00000  0.00000  0.00000  1
 Hf  Hf3  1  0.66667  0.33333  0.59406  1
 Hf  Hf4  1  0.66667  0.33333  0.90594  1
 Hf  Hf5  1  0.33333  0.66667  0.09406  1
 Hf  Hf6  1  0.33333  0.66667  0.40594  1
