CIF file written using JARVIS-Tools package.
data_DyMnGe
_symmetry_space_group_name_H-M  'Pnma'
_cell_length_a       4.10547
_cell_length_b       7.04972
_cell_length_c       7.83827
_cell_angle_alpha    90
_cell_angle_beta     90
_cell_angle_gamma    90

_symmetry_Int_Tables_number  62
_chemical_formula_structural  DyMnGe
_chemical_formula_sum  Dy4Mn4Ge4
_cell_volume  226.8583586759722
_cell_formula_units_Z  4
loop_
  _symmetry_equiv_pos_site_id
 _symmetry_equiv_pos_as_xyz
 1  'x, y, z'
loop_
 _atom_site_type_symbol
 _atom_site_label
 _atom_site_symmetry_multiplicity
 _atom_site_fract_x
 _atom_site_fract_y
 _atom_site_fract_z
 _atom_site_fract_occupancy
 Dy  Dy1  1  0.25000  0.52044  0.18399  1
 Dy  Dy2  1  0.75000  0.47956  0.81601  1
 Dy  Dy3  1  0.25000  0.02044  0.31601  1
 Dy  Dy4  1  0.75000  0.97956  0.68399  1
 Ge  Ge1  1  0.25000  0.27564  0.61617  1
 Ge  Ge2  1  0.75000  0.22436  0.11617  1
 Ge  Ge3  1  0.25000  0.77564  0.88383  1
 Ge  Ge4  1  0.75000  0.72436  0.38383  1
 Mn  Mn1  1  0.75000  0.36652  0.44375  1
 Mn  Mn2  1  0.25000  0.13348  0.94375  1
 Mn  Mn3  1  0.75000  0.86652  0.05625  1
 Mn  Mn4  1  0.25000  0.63348  0.55625  1
