CIF file written using JARVIS-Tools package.
data_NaMnSi2O6
_symmetry_space_group_name_H-M  'C2/c'
_cell_length_a       5.40916
_cell_length_b       6.46194
_cell_length_c       6.46194
_cell_angle_alpha    84.0729
_cell_angle_beta     79.006
_cell_angle_gamma    79.006

_symmetry_Int_Tables_number  15
_chemical_formula_structural  NaMnSi2O6
_chemical_formula_sum  Na2Mn2Si4O2
_cell_volume  217.12904530269446
_cell_formula_units_Z  2
loop_
  _symmetry_equiv_pos_site_id
 _symmetry_equiv_pos_as_xyz
 1  'x, y, z'
loop_
 _atom_site_type_symbol
 _atom_site_label
 _atom_site_symmetry_multiplicity
 _atom_site_fract_x
 _atom_site_fract_y
 _atom_site_fract_z
 _atom_site_fract_occupancy
 Mn  Mn1  1  0.75000  0.90684  0.09316  1
 Mn  Mn2  1  0.25000  0.09316  0.90684  1
 Na  Na1  1  0.75000  0.29765  0.70235  1
 Na  Na2  1  0.25000  0.70235  0.29765  1
 O  O1  1  0.01865  0.63499  0.65139  1
 O  O2  1  0.51865  0.65139  0.63499  1
 O  O3  1  0.98135  0.36501  0.34861  1
 O  O4  1  0.19644  0.10016  0.62268  1
 O  O5  1  0.30356  0.37732  0.89984  1
 O  O6  1  0.80356  0.89984  0.37732  1
 O  O7  1  0.69644  0.62268  0.10016  1
 O  O8  1  0.16341  0.80512  0.95935  1
 O  O9  1  0.83659  0.19488  0.04065  1
 O  O10  1  0.33659  0.04065  0.19488  1
 O  O11  1  0.48135  0.34861  0.36501  1
 O  O12  1  0.66341  0.95935  0.80512  1
 Si  Si1  1  0.25354  0.20514  0.38320  1
 Si  Si2  1  0.75354  0.38320  0.20514  1
 Si  Si3  1  0.24646  0.61680  0.79486  1
 Si  Si4  1  0.74646  0.79486  0.61680  1
