CIF file written using JARVIS-Tools package.
data_CuP4Se4I
_symmetry_space_group_name_H-M  'Cmce'
_cell_length_a       9.51397
_cell_length_b       9.51397
_cell_length_c       12.5038
_cell_angle_alpha    90
_cell_angle_beta     90
_cell_angle_gamma    103.218

_symmetry_Int_Tables_number  64
_chemical_formula_structural  CuP4Se4I
_chemical_formula_sum  Cu4P6Se6I4
_cell_volume  1101.8056084373925
_cell_formula_units_Z  4
loop_
  _symmetry_equiv_pos_site_id
 _symmetry_equiv_pos_as_xyz
 1  'x, y, z'
loop_
 _atom_site_type_symbol
 _atom_site_label
 _atom_site_symmetry_multiplicity
 _atom_site_fract_x
 _atom_site_fract_y
 _atom_site_fract_z
 _atom_site_fract_occupancy
 Cu  Cu1  1  0.90499  0.09501  0.50000  1
 Cu  Cu2  1  0.59501  0.40499  0.00000  1
 Cu  Cu3  1  0.40499  0.59501  0.00000  1
 Cu  Cu4  1  0.09501  0.90499  0.50000  1
 I  I1  1  0.81062  0.81062  0.48483  1
 I  I2  1  0.31062  0.31062  0.01517  1
 I  I3  1  0.18938  0.18938  0.51517  1
 I  I4  1  0.68938  0.68938  0.98483  1
 P  P1  1  0.71615  0.35329  0.14584  1
 P  P2  1  0.75578  0.54038  0.25989  1
 P  P3  1  0.25578  0.04038  0.24011  1
 P  P4  1  0.24422  0.45962  0.74011  1
 P  P5  1  0.54038  0.75578  0.25989  1
 P  P6  1  0.35329  0.71615  0.14584  1
 P  P7  1  0.85329  0.21615  0.35416  1
 P  P8  1  0.21615  0.85329  0.35416  1
 P  P9  1  0.28385  0.64671  0.85416  1
 P  P10  1  0.78385  0.14671  0.64584  1
 P  P11  1  0.74422  0.95962  0.75989  1
 P  P12  1  0.64671  0.28385  0.85416  1
 P  P13  1  0.45962  0.24422  0.74011  1
 P  P14  1  0.95962  0.74422  0.75989  1
 P  P15  1  0.14671  0.78385  0.64584  1
 P  P16  1  0.04038  0.25578  0.24011  1
 Se  Se1  1  0.15056  0.65056  0.25000  1
 Se  Se2  1  0.84944  0.34944  0.75000  1
 Se  Se3  1  0.65056  0.15056  0.25000  1
 Se  Se4  1  0.48342  0.48342  0.69097  1
 Se  Se5  1  0.64925  0.05343  0.90728  1
 Se  Se6  1  0.05343  0.64925  0.90728  1
 Se  Se7  1  0.51658  0.51658  0.30903  1
 Se  Se8  1  0.98342  0.98342  0.80903  1
 Se  Se9  1  0.44657  0.85075  0.40728  1
 Se  Se10  1  0.94657  0.35075  0.09272  1
 Se  Se11  1  0.14925  0.55343  0.59272  1
 Se  Se12  1  0.35075  0.94657  0.09272  1
 Se  Se13  1  0.55343  0.14925  0.59272  1
 Se  Se14  1  0.85075  0.44657  0.40728  1
 Se  Se15  1  0.34944  0.84944  0.75000  1
 Se  Se16  1  0.01658  0.01658  0.19097  1
