CIF file written using JARVIS-Tools package.
data_BaRuO3
_symmetry_space_group_name_H-M  'R-3m'
_cell_length_a       7.97565
_cell_length_b       7.97565
_cell_length_c       7.97564
_cell_angle_alpha    42.5775
_cell_angle_beta     42.5776
_cell_angle_gamma    42.5775

_symmetry_Int_Tables_number  166
_chemical_formula_structural  BaRuO3
_chemical_formula_sum  Ba3Ru3O9
_cell_volume  210.32587119469602
_cell_formula_units_Z  3
loop_
  _symmetry_equiv_pos_site_id
 _symmetry_equiv_pos_as_xyz
 1  'x, y, z'
loop_
 _atom_site_type_symbol
 _atom_site_label
 _atom_site_symmetry_multiplicity
 _atom_site_fract_x
 _atom_site_fract_y
 _atom_site_fract_z
 _atom_site_fract_occupancy
 Ba  Ba1  1  0.78192  0.78192  0.78192  1
 Ba  Ba2  1  0.21808  0.21808  0.21808  1
 Ba  Ba3  1  0.00000  0.00000  0.00000  1
 O  O1  1  0.71484  0.24645  0.71484  1
 O  O2  1  0.24645  0.71484  0.71484  1
 O  O3  1  0.71484  0.71484  0.24645  1
 O  O4  1  0.28516  0.75355  0.28516  1
 O  O5  1  0.75355  0.28516  0.28516  1
 O  O6  1  0.28516  0.28516  0.75355  1
 O  O7  1  0.50000  0.50000  -0.00000  1
 O  O8  1  -0.00000  0.50000  0.50000  1
 O  O9  1  0.50000  0.00000  0.50000  1
 Ru  Ru1  1  0.61722  0.61722  0.61722  1
 Ru  Ru2  1  0.38278  0.38278  0.38278  1
 Ru  Ru3  1  0.50000  0.50000  0.50000  1
