CIF file written using JARVIS-Tools package.
data_MoN
_symmetry_space_group_name_H-M  'P6_3mc'
_cell_length_a       5.76067
_cell_length_b       5.76067
_cell_length_c       5.66965
_cell_angle_alpha    90
_cell_angle_beta     90
_cell_angle_gamma    120

_symmetry_Int_Tables_number  186
_chemical_formula_structural  MoN
_chemical_formula_sum  Mo8N8
_cell_volume  162.94186778655856
_cell_formula_units_Z  8
loop_
  _symmetry_equiv_pos_site_id
 _symmetry_equiv_pos_as_xyz
 1  'x, y, z'
loop_
 _atom_site_type_symbol
 _atom_site_label
 _atom_site_symmetry_multiplicity
 _atom_site_fract_x
 _atom_site_fract_y
 _atom_site_fract_z
 _atom_site_fract_occupancy
 Mo  Mo1  1  0.02413  0.51207  0.50779  1
 Mo  Mo2  1  0.51207  0.48793  0.00779  1
 Mo  Mo3  1  0.51207  0.02413  0.00779  1
 Mo  Mo4  1  0.48793  0.97587  0.50779  1
 Mo  Mo5  1  0.48793  0.51207  0.50779  1
 Mo  Mo6  1  0.97587  0.48793  0.00779  1
 Mo  Mo7  1  0.00000  0.00000  0.51354  1
 Mo  Mo8  1  0.00000  0.00000  0.01354  1
 N  N1  1  0.66677  0.83339  0.25173  1
 N  N2  1  0.83339  0.16661  0.75173  1
 N  N3  1  0.83339  0.66677  0.75173  1
 N  N4  1  0.16661  0.33323  0.25173  1
 N  N5  1  0.16661  0.83339  0.25173  1
 N  N6  1  0.33323  0.16661  0.75173  1
 N  N7  1  0.33333  0.66667  0.78088  1
 N  N8  1  0.66667  0.33333  0.28088  1
