CIF file written using JARVIS-Tools package.
data_PrMn7O12
_symmetry_space_group_name_H-M  'Im-3'
_cell_length_a       6.46813
_cell_length_b       6.46813
_cell_length_c       6.46821
_cell_angle_alpha    109.468
_cell_angle_beta     109.472
_cell_angle_gamma    109.473

_symmetry_Int_Tables_number  204
_chemical_formula_structural  PrMn7O12
_chemical_formula_sum  PrMn7O2
_cell_volume  208.31578086518405
_cell_formula_units_Z  1
loop_
  _symmetry_equiv_pos_site_id
 _symmetry_equiv_pos_as_xyz
 1  'x, y, z'
loop_
 _atom_site_type_symbol
 _atom_site_label
 _atom_site_symmetry_multiplicity
 _atom_site_fract_x
 _atom_site_fract_y
 _atom_site_fract_z
 _atom_site_fract_occupancy
 Mn  Mn1  1  0.00000  0.50000  0.50000  1
 Mn  Mn2  1  0.50000  0.00000  0.50000  1
 Mn  Mn3  1  0.50000  0.50000  0.50000  1
 Mn  Mn4  1  -0.00000  0.00000  0.50000  1
 Mn  Mn5  1  0.00000  0.50000  -0.00000  1
 Mn  Mn6  1  0.50000  -0.00000  1.00000  1
 Mn  Mn7  1  0.50000  0.50000  -0.00000  1
 O  O1  1  0.48315  0.30735  0.17578  1
 O  O2  1  0.17579  0.48315  0.30737  1
 O  O3  1  0.82422  0.13158  0.30737  1
 O  O4  1  0.82421  0.51685  0.69263  1
 O  O5  1  0.30737  0.82422  0.13158  1
 O  O6  1  0.69263  0.17578  0.86842  1
 O  O7  1  0.51685  0.69265  0.82422  1
 O  O8  1  0.69263  0.82422  0.51685  1
 O  O9  1  0.17578  0.86842  0.69263  1
 O  O10  1  0.86843  0.69263  0.17578  1
 O  O11  1  0.13157  0.30737  0.82422  1
 O  O12  1  0.30737  0.17578  0.48315  1
 Pr  Pr1  1  0.00000  0.00000  0.00000  1
