CIF file written using JARVIS-Tools package.
data_CaAg2O4
_symmetry_space_group_name_H-M  'Cmcm'
_cell_length_a       3.30474
_cell_length_b       5.57062
_cell_length_c       9.91995
_cell_angle_alpha    90
_cell_angle_beta     90
_cell_angle_gamma    107.255

_symmetry_Int_Tables_number  63
_chemical_formula_structural  CaAg2O4
_chemical_formula_sum  Ca2Ag4O8
_cell_volume  174.40183870615684
_cell_formula_units_Z  2
loop_
  _symmetry_equiv_pos_site_id
 _symmetry_equiv_pos_as_xyz
 1  'x, y, z'
loop_
 _atom_site_type_symbol
 _atom_site_label
 _atom_site_symmetry_multiplicity
 _atom_site_fract_x
 _atom_site_fract_y
 _atom_site_fract_z
 _atom_site_fract_occupancy
 Ag  Ag1  1  0.86743  0.73486  0.07023  1
 Ag  Ag2  1  0.13257  0.26514  0.92977  1
 Ag  Ag3  1  0.86743  0.73486  0.42977  1
 Ag  Ag4  1  0.13257  0.26514  0.57023  1
 Ca  Ca1  1  0.39102  0.78204  0.75000  1
 Ca  Ca2  1  0.60898  0.21796  0.25000  1
 O  O1  1  0.21969  0.43939  0.38722  1
 O  O2  1  0.78031  0.56061  0.61278  1
 O  O3  1  0.78031  0.56061  0.88722  1
 O  O4  1  0.21969  0.43939  0.11278  1
 O  O5  1  0.95713  0.91427  0.25000  1
 O  O6  1  0.04287  0.08573  0.75000  1
 O  O7  1  0.50000  0.00000  0.00000  1
 O  O8  1  0.50000  0.00000  0.50000  1
