CIF file written using JARVIS-Tools package.
data_TaTlGe3O9
_symmetry_space_group_name_H-M  'P-6c2'
_cell_length_a       7.09909
_cell_length_b       7.09909
_cell_length_c       10.2988
_cell_angle_alpha    90
_cell_angle_beta     90
_cell_angle_gamma    120

_symmetry_Int_Tables_number  188
_chemical_formula_structural  TaTlGe3O9
_chemical_formula_sum  Ta2Tl2Ge6O8
_cell_volume  449.4903395235148
_cell_formula_units_Z  2
loop_
  _symmetry_equiv_pos_site_id
 _symmetry_equiv_pos_as_xyz
 1  'x, y, z'
loop_
 _atom_site_type_symbol
 _atom_site_label
 _atom_site_symmetry_multiplicity
 _atom_site_fract_x
 _atom_site_fract_y
 _atom_site_fract_z
 _atom_site_fract_occupancy
 Ge  Ge1  1  0.07230  0.78288  0.75000  1
 Ge  Ge2  1  0.71058  0.92770  0.75000  1
 Ge  Ge3  1  0.21712  0.28942  0.75000  1
 Ge  Ge4  1  0.21712  0.92770  0.25000  1
 Ge  Ge5  1  0.07230  0.28942  0.25000  1
 Ge  Ge6  1  0.71058  0.78288  0.25000  1
 O  O1  1  0.09816  0.65766  0.89042  1
 O  O2  1  0.26688  0.20021  0.25000  1
 O  O3  1  0.93333  0.73312  0.25000  1
 O  O4  1  0.79979  0.06667  0.25000  1
 O  O5  1  0.09816  0.44050  0.39042  1
 O  O6  1  0.93333  0.20021  0.75000  1
 O  O7  1  0.26688  0.06667  0.75000  1
 O  O8  1  0.09816  0.44050  0.10958  1
 O  O9  1  0.79979  0.73312  0.75000  1
 O  O10  1  0.55950  0.65766  0.39042  1
 O  O11  1  0.55950  0.90184  0.60958  1
 O  O12  1  0.55950  0.90184  0.89042  1
 O  O13  1  0.34234  0.44050  0.89042  1
 O  O14  1  0.34234  0.90184  0.39042  1
 O  O15  1  0.34234  0.44050  0.60958  1
 O  O16  1  0.09816  0.65766  0.60958  1
 O  O17  1  0.55950  0.65766  0.10958  1
 O  O18  1  0.34234  0.90184  0.10958  1
 Ta  Ta1  1  0.33333  0.66667  0.50000  1
 Ta  Ta2  1  0.33333  0.66667  0.00000  1
 Tl  Tl1  1  0.66667  0.33333  0.50000  1
 Tl  Tl2  1  0.66667  0.33333  0.00000  1
