CIF file written using JARVIS-Tools package.
data_HfSiPt
_symmetry_space_group_name_H-M  'Pnma'
_cell_length_a       3.91381
_cell_length_b       6.59883
_cell_length_c       7.57829
_cell_angle_alpha    90
_cell_angle_beta     90
_cell_angle_gamma    90

_symmetry_Int_Tables_number  62
_chemical_formula_structural  HfSiPt
_chemical_formula_sum  Hf4Si4Pt4
_cell_volume  195.72133363722827
_cell_formula_units_Z  4
loop_
  _symmetry_equiv_pos_site_id
 _symmetry_equiv_pos_as_xyz
 1  'x, y, z'
loop_
 _atom_site_type_symbol
 _atom_site_label
 _atom_site_symmetry_multiplicity
 _atom_site_fract_x
 _atom_site_fract_y
 _atom_site_fract_z
 _atom_site_fract_occupancy
 Hf  Hf1  1  0.75000  0.47432  0.32250  1
 Hf  Hf2  1  0.25000  0.02568  0.82250  1
 Hf  Hf3  1  0.75000  0.97432  0.17750  1
 Hf  Hf4  1  0.25000  0.52568  0.67750  1
 Pt  Pt1  1  0.25000  0.64670  0.06639  1
 Pt  Pt2  1  0.25000  0.14670  0.43361  1
 Pt  Pt3  1  0.75000  0.85330  0.56639  1
 Pt  Pt4  1  0.75000  0.35330  0.93361  1
 Si  Si1  1  0.25000  0.25978  0.12188  1
 Si  Si2  1  0.25000  0.75978  0.37812  1
 Si  Si3  1  0.75000  0.74022  0.87812  1
 Si  Si4  1  0.75000  0.24022  0.62188  1
