CIF file written using JARVIS-Tools package.
data_TlCdSb
_symmetry_space_group_name_H-M  'Pnma'
_cell_length_a       4.96874
_cell_length_b       8.3835
_cell_length_c       8.55105
_cell_angle_alpha    90
_cell_angle_beta     90
_cell_angle_gamma    90

_symmetry_Int_Tables_number  62
_chemical_formula_structural  TlCdSb
_chemical_formula_sum  Tl4Cd4Sb4
_cell_volume  356.19797348439283
_cell_formula_units_Z  4
loop_
  _symmetry_equiv_pos_site_id
 _symmetry_equiv_pos_as_xyz
 1  'x, y, z'
loop_
 _atom_site_type_symbol
 _atom_site_label
 _atom_site_symmetry_multiplicity
 _atom_site_fract_x
 _atom_site_fract_y
 _atom_site_fract_z
 _atom_site_fract_occupancy
 Cd  Cd1  1  0.25000  0.66012  0.08948  1
 Cd  Cd2  1  0.75000  0.83988  0.58948  1
 Cd  Cd3  1  0.25000  0.16012  0.41052  1
 Cd  Cd4  1  0.75000  0.33988  0.91052  1
 Sb  Sb1  1  0.75000  0.70368  0.90585  1
 Sb  Sb2  1  0.25000  0.79632  0.40585  1
 Sb  Sb3  1  0.75000  0.20368  0.59415  1
 Sb  Sb4  1  0.25000  0.29632  0.09415  1
 Tl  Tl1  1  0.75000  0.99708  0.17851  1
 Tl  Tl2  1  0.25000  0.00292  0.82149  1
 Tl  Tl3  1  0.75000  0.49708  0.32149  1
 Tl  Tl4  1  0.25000  0.50292  0.67851  1
