CIF file written using JARVIS-Tools package.
data_Ge3N4
_symmetry_space_group_name_H-M  'I-43d'
_cell_length_a       5.95742
_cell_length_b       5.95742
_cell_length_c       5.95742
_cell_angle_alpha    109.471
_cell_angle_beta     109.471
_cell_angle_gamma    109.471

_symmetry_Int_Tables_number  220
_chemical_formula_structural  Ge3N4
_chemical_formula_sum  Ge6N8
_cell_volume  162.76200862982157
_cell_formula_units_Z  2
loop_
  _symmetry_equiv_pos_site_id
 _symmetry_equiv_pos_as_xyz
 1  'x, y, z'
loop_
 _atom_site_type_symbol
 _atom_site_label
 _atom_site_symmetry_multiplicity
 _atom_site_fract_x
 _atom_site_fract_y
 _atom_site_fract_z
 _atom_site_fract_occupancy
 Ge  Ge1  1  0.12500  0.87500  0.25000  1
 Ge  Ge2  1  0.62500  0.75000  0.37500  1
 Ge  Ge3  1  0.87500  0.25000  0.12500  1
 Ge  Ge4  1  0.37500  0.62500  0.75000  1
 Ge  Ge5  1  0.25000  0.12500  0.87500  1
 Ge  Ge6  1  0.75000  0.37500  0.62500  1
 N  N1  1  0.94763  0.50000  -0.00000  1
 N  N2  1  0.50000  -0.00000  0.44763  1
 N  N3  1  0.55237  0.55237  0.55237  1
 N  N4  1  0.00000  0.94763  0.50000  1
 N  N5  1  0.05237  0.05237  0.05237  1
 N  N6  1  0.44763  0.50000  -0.00000  1
 N  N7  1  0.00000  0.44763  0.50000  1
 N  N8  1  0.50000  -0.00000  0.94763  1
