CIF file written using JARVIS-Tools package.
data_K8SnSb4
_symmetry_space_group_name_H-M  'Fd-3m'
_cell_length_a       11.5129
_cell_length_b       11.5129
_cell_length_c       11.5129
_cell_angle_alpha    60
_cell_angle_beta     60
_cell_angle_gamma    60

_symmetry_Int_Tables_number  227
_chemical_formula_structural  K8SnSb4
_chemical_formula_sum  K6Sn2Sb8
_cell_volume  1079.0537229178499
_cell_formula_units_Z  2
loop_
  _symmetry_equiv_pos_site_id
 _symmetry_equiv_pos_as_xyz
 1  'x, y, z'
loop_
 _atom_site_type_symbol
 _atom_site_label
 _atom_site_symmetry_multiplicity
 _atom_site_fract_x
 _atom_site_fract_y
 _atom_site_fract_z
 _atom_site_fract_occupancy
 K  K1  1  0.00000  0.00000  0.00000  1
 K  K2  1  0.00000  0.00000  0.50000  1
 K  K3  1  0.50000  0.00000  -0.00000  1
 K  K4  1  0.00000  0.50000  -0.00000  1
 K  K5  1  0.60093  0.14907  0.14907  1
 K  K6  1  0.85093  0.85093  0.39907  1
 K  K7  1  0.39907  0.39907  0.85093  1
 K  K8  1  0.60093  0.60093  0.14907  1
 K  K9  1  0.85093  0.39907  0.39907  1
 K  K10  1  0.39907  0.85093  0.39907  1
 K  K11  1  0.14907  0.60093  0.14907  1
 K  K12  1  0.14907  0.14907  0.60093  1
 K  K13  1  0.60093  0.14907  0.60093  1
 K  K14  1  0.39907  0.85093  0.85093  1
 K  K15  1  0.14907  0.60093  0.60093  1
 K  K16  1  0.85093  0.39907  0.85093  1
 Sb  Sb1  1  0.81197  0.22934  0.22934  1
 Sb  Sb2  1  0.77066  0.18803  0.77066  1
 Sb  Sb3  1  0.18803  0.77066  0.77066  1
 Sb  Sb4  1  0.77066  0.77066  0.18803  1
 Sb  Sb5  1  0.77066  0.77066  0.77066  1
 Sb  Sb6  1  0.22934  0.22934  0.81197  1
 Sb  Sb7  1  0.22934  0.81197  0.22934  1
 Sb  Sb8  1  0.22934  0.22934  0.22934  1
 Sn  Sn1  1  0.12500  0.12500  0.12500  1
 Sn  Sn2  1  0.87500  0.87500  0.87500  1
