CIF file written using JARVIS-Tools package.
data_Sr2CoReO6
_symmetry_space_group_name_H-M  'I4/m'
_cell_length_a       5.55558
_cell_length_b       5.55558
_cell_length_c       5.61784
_cell_angle_alpha    119.634
_cell_angle_beta     119.634
_cell_angle_gamma    90

_symmetry_Int_Tables_number  87
_chemical_formula_structural  Sr2CoReO6
_chemical_formula_sum  Sr2CoReO6
_cell_volume  123.95020661751519
_cell_formula_units_Z  1
loop_
  _symmetry_equiv_pos_site_id
 _symmetry_equiv_pos_as_xyz
 1  'x, y, z'
loop_
 _atom_site_type_symbol
 _atom_site_label
 _atom_site_symmetry_multiplicity
 _atom_site_fract_x
 _atom_site_fract_y
 _atom_site_fract_z
 _atom_site_fract_occupancy
 Co  Co1  1  0.00000  0.00000  0.00000  1
 O  O1  1  0.70205  0.78313  -0.00000  1
 O  O2  1  0.21687  0.70205  0.00000  1
 O  O3  1  0.78313  0.29795  -0.00000  1
 O  O4  1  0.29795  0.21687  0.00000  1
 O  O5  1  0.25835  0.25835  0.51670  1
 O  O6  1  0.74165  0.74165  0.48330  1
 Re  Re1  1  0.50000  0.50000  -0.00000  1
 Sr  Sr1  1  0.25000  0.75000  0.50000  1
 Sr  Sr2  1  0.75000  0.25000  0.50000  1
