CIF file written using JARVIS-Tools package.
data_Y5Mg24
_symmetry_space_group_name_H-M  'I-43m'
_cell_length_a       9.74155
_cell_length_b       9.74155
_cell_length_c       9.74155
_cell_angle_alpha    109.471
_cell_angle_beta     109.471
_cell_angle_gamma    109.471

_symmetry_Int_Tables_number  217
_chemical_formula_structural  Y5Mg24
_chemical_formula_sum  Y5Mg24
_cell_volume  711.6434979302664
_cell_formula_units_Z  1
loop_
  _symmetry_equiv_pos_site_id
 _symmetry_equiv_pos_as_xyz
 1  'x, y, z'
loop_
 _atom_site_type_symbol
 _atom_site_label
 _atom_site_symmetry_multiplicity
 _atom_site_fract_x
 _atom_site_fract_y
 _atom_site_fract_z
 _atom_site_fract_occupancy
 Mg  Mg1  1  0.19092  0.19092  0.82034  1
 Mg  Mg2  1  0.37058  0.17966  0.37058  1
 Mg  Mg3  1  0.17966  0.37058  0.37058  1
 Mg  Mg4  1  -0.00000  0.62942  0.80908  1
 Mg  Mg5  1  0.62942  -0.00000  0.80908  1
 Mg  Mg6  1  0.38696  0.38696  0.71069  1
 Mg  Mg7  1  0.61304  0.32372  0.00000  1
 Mg  Mg8  1  0.32372  0.61304  -0.00000  1
 Mg  Mg9  1  -0.00000  0.32372  0.61304  1
 Mg  Mg10  1  0.28931  0.67628  0.67628  1
 Mg  Mg11  1  0.67628  0.28931  0.67628  1
 Mg  Mg12  1  0.32372  -0.00000  0.61304  1
 Mg  Mg13  1  0.61304  0.00000  0.32372  1
 Mg  Mg14  1  0.00000  0.61304  0.32372  1
 Mg  Mg15  1  0.71069  0.38696  0.38696  1
 Mg  Mg16  1  0.67628  0.67628  0.28931  1
 Mg  Mg17  1  0.37058  0.37058  0.17966  1
 Mg  Mg18  1  0.62942  0.80908  -0.00000  1
 Mg  Mg19  1  0.80908  0.62942  -0.00000  1
 Mg  Mg20  1  -0.00000  0.80908  0.62942  1
 Mg  Mg21  1  0.82034  0.19092  0.19092  1
 Mg  Mg22  1  0.19092  0.82034  0.19092  1
 Mg  Mg23  1  0.80908  -0.00000  0.62942  1
 Mg  Mg24  1  0.38696  0.71069  0.38696  1
 Y  Y1  1  0.62331  0.62331  0.62331  1
 Y  Y2  1  -0.00000  -0.00000  0.37669  1
 Y  Y3  1  -0.00000  0.37669  -0.00000  1
 Y  Y4  1  0.37669  0.00000  0.00000  1
 Y  Y5  1  0.00000  0.00000  0.00000  1
