CIF file written using JARVIS-Tools package.
data_HgS
_symmetry_space_group_name_H-M  'P3_121'
_cell_length_a       3.9488
_cell_length_b       3.9488
_cell_length_c       9.70687
_cell_angle_alpha    90
_cell_angle_beta     90
_cell_angle_gamma    120

_symmetry_Int_Tables_number  152
_chemical_formula_structural  HgS
_chemical_formula_sum  Hg3S3
_cell_volume  131.08117068268012
_cell_formula_units_Z  3
loop_
  _symmetry_equiv_pos_site_id
 _symmetry_equiv_pos_as_xyz
 1  'x, y, z'
loop_
 _atom_site_type_symbol
 _atom_site_label
 _atom_site_symmetry_multiplicity
 _atom_site_fract_x
 _atom_site_fract_y
 _atom_site_fract_z
 _atom_site_fract_occupancy
 Hg  Hg1  1  0.64517  0.64517  0.00000  1
 Hg  Hg2  1  0.35483  -0.00000  0.33333  1
 Hg  Hg3  1  -0.00000  0.35483  0.66667  1
 S  S1  1  0.72589  0.72589  0.50000  1
 S  S2  1  0.27411  -0.00000  0.83333  1
 S  S3  1  -0.00000  0.27411  0.16667  1
