CIF file written using JARVIS-Tools package.
data_ThB2C
_symmetry_space_group_name_H-M  'R-3m'
_cell_length_a       5.45497
_cell_length_b       5.45498
_cell_length_c       5.45498
_cell_angle_alpha    75.7957
_cell_angle_beta     75.7957
_cell_angle_gamma    75.7957

_symmetry_Int_Tables_number  166
_chemical_formula_structural  ThB2C
_chemical_formula_sum  Th3B6C3
_cell_volume  149.558235892326
_cell_formula_units_Z  3
loop_
  _symmetry_equiv_pos_site_id
 _symmetry_equiv_pos_as_xyz
 1  'x, y, z'
loop_
 _atom_site_type_symbol
 _atom_site_label
 _atom_site_symmetry_multiplicity
 _atom_site_fract_x
 _atom_site_fract_y
 _atom_site_fract_z
 _atom_site_fract_occupancy
 B  B1  1  0.77655  0.50000  0.22345  1
 B  B2  1  0.50000  0.22345  0.77655  1
 B  B3  1  0.22345  0.77655  0.50000  1
 B  B4  1  0.22345  0.50000  0.77655  1
 B  B5  1  0.77655  0.22345  0.50000  1
 B  B6  1  0.50000  0.77655  0.22345  1
 C  C1  1  0.00000  -0.00000  0.50000  1
 C  C2  1  0.50000  0.00000  0.00000  1
 C  C3  1  0.00000  0.50000  0.00000  1
 Th  Th1  1  0.68448  0.68448  0.68448  1
 Th  Th2  1  0.31552  0.31552  0.31552  1
 Th  Th3  1  0.00000  0.00000  0.00000  1
