CIF file written using JARVIS-Tools package.
data_Na2Ti3Cl8
_symmetry_space_group_name_H-M  'R3m'
_cell_length_a       7.84005
_cell_length_b       7.84005
_cell_length_c       7.84005
_cell_angle_alpha    52.233
_cell_angle_beta     52.2331
_cell_angle_gamma    52.2329

_symmetry_Int_Tables_number  160
_chemical_formula_structural  Na2Ti3Cl8
_chemical_formula_sum  Na2Ti3Cl8
_cell_volume  278.5719906253942
_cell_formula_units_Z  1
loop_
  _symmetry_equiv_pos_site_id
 _symmetry_equiv_pos_as_xyz
 1  'x, y, z'
loop_
 _atom_site_type_symbol
 _atom_site_label
 _atom_site_symmetry_multiplicity
 _atom_site_fract_x
 _atom_site_fract_y
 _atom_site_fract_z
 _atom_site_fract_occupancy
 Cl  Cl1  1  0.90093  0.90093  0.40178  1
 Cl  Cl2  1  0.90093  0.40178  0.90093  1
 Cl  Cl3  1  0.58717  0.09100  0.09100  1
 Cl  Cl4  1  0.40178  0.90093  0.90093  1
 Cl  Cl5  1  0.42193  0.42193  0.42193  1
 Cl  Cl6  1  0.09100  0.58717  0.09100  1
 Cl  Cl7  1  0.60467  0.60467  0.60467  1
 Cl  Cl8  1  0.09100  0.09100  0.58717  1
 Na  Na1  1  0.82760  0.82760  0.82760  1
 Na  Na2  1  0.15892  0.15892  0.15892  1
 Ti  Ti1  1  0.06064  0.47144  0.47144  1
 Ti  Ti2  1  0.47144  0.47144  0.06064  1
 Ti  Ti3  1  0.47144  0.06064  0.47144  1
