CIF file written using JARVIS-Tools package.
data_Ca3Si4Ir4
_symmetry_space_group_name_H-M  'I-43m'
_cell_length_a       6.47659
_cell_length_b       6.4766
_cell_length_c       6.47659
_cell_angle_alpha    109.471
_cell_angle_beta     109.471
_cell_angle_gamma    109.471

_symmetry_Int_Tables_number  217
_chemical_formula_structural  Ca3Si4Ir4
_chemical_formula_sum  Ca3Si4Ir4
_cell_volume  209.13083318756102
_cell_formula_units_Z  1
loop_
  _symmetry_equiv_pos_site_id
 _symmetry_equiv_pos_as_xyz
 1  'x, y, z'
loop_
 _atom_site_type_symbol
 _atom_site_label
 _atom_site_symmetry_multiplicity
 _atom_site_fract_x
 _atom_site_fract_y
 _atom_site_fract_z
 _atom_site_fract_occupancy
 Ca  Ca1  1  0.50000  0.50000  -0.00000  1
 Ca  Ca2  1  -0.00000  0.50000  0.50000  1
 Ca  Ca3  1  0.50000  0.00000  0.50000  1
 Ir  Ir1  1  -0.00000  -0.00000  0.71931  1
 Ir  Ir2  1  0.71931  -0.00000  -0.00000  1
 Ir  Ir3  1  0.28069  0.28069  0.28069  1
 Ir  Ir4  1  0.00000  0.71931  -0.00000  1
 Si  Si1  1  0.00000  0.00000  0.36534  1
 Si  Si2  1  0.63466  0.63466  0.63466  1
 Si  Si3  1  0.36534  0.00000  0.00000  1
 Si  Si4  1  -0.00000  0.36534  0.00000  1
