CIF file written using JARVIS-Tools package.
data_Li2P2WO8
_symmetry_space_group_name_H-M  'P-3'
_cell_length_a       4.9203
_cell_length_b       4.9203
_cell_length_c       7.20909
_cell_angle_alpha    90
_cell_angle_beta     90
_cell_angle_gamma    120

_symmetry_Int_Tables_number  147
_chemical_formula_structural  Li2P2WO8
_chemical_formula_sum  Li2P2WO8
_cell_volume  151.14473510915877
_cell_formula_units_Z  1
loop_
  _symmetry_equiv_pos_site_id
 _symmetry_equiv_pos_as_xyz
 1  'x, y, z'
loop_
 _atom_site_type_symbol
 _atom_site_label
 _atom_site_symmetry_multiplicity
 _atom_site_fract_x
 _atom_site_fract_y
 _atom_site_fract_z
 _atom_site_fract_occupancy
 Li  Li1  1  0.66667  0.33333  0.29700  1
 Li  Li2  1  0.33333  0.66667  0.70300  1
 O  O1  1  0.95399  0.64165  0.83305  1
 O  O2  1  0.66667  0.33333  0.54745  1
 O  O3  1  0.68766  0.04601  0.83305  1
 O  O4  1  0.35835  0.31234  0.83305  1
 O  O5  1  0.64165  0.68766  0.16695  1
 O  O6  1  0.31234  0.95399  0.16695  1
 O  O7  1  0.33333  0.66667  0.45255  1
 O  O8  1  0.04601  0.35835  0.16695  1
 P  P1  1  0.66667  0.33333  0.75251  1
 P  P2  1  0.33333  0.66667  0.24749  1
 W  W1  1  0.00000  0.00000  0.00000  1
