CIF file written using JARVIS-Tools package.
data_Pd4Se
_symmetry_space_group_name_H-M  'P-42_1c'
_cell_length_a       5.32151
_cell_length_b       5.32151
_cell_length_c       5.71701
_cell_angle_alpha    90
_cell_angle_beta     90
_cell_angle_gamma    90

_symmetry_Int_Tables_number  114
_chemical_formula_structural  Pd4Se
_chemical_formula_sum  Pd8Se2
_cell_volume  161.89730702758106
_cell_formula_units_Z  2
loop_
  _symmetry_equiv_pos_site_id
 _symmetry_equiv_pos_as_xyz
 1  'x, y, z'
loop_
 _atom_site_type_symbol
 _atom_site_label
 _atom_site_symmetry_multiplicity
 _atom_site_fract_x
 _atom_site_fract_y
 _atom_site_fract_z
 _atom_site_fract_occupancy
 Pd  Pd1  1  0.62582  0.76907  0.84672  1
 Pd  Pd2  1  0.73093  0.87418  0.34672  1
 Pd  Pd3  1  0.26907  0.12582  0.34672  1
 Pd  Pd4  1  0.23093  0.62582  0.15328  1
 Pd  Pd5  1  0.87418  0.26907  0.65328  1
 Pd  Pd6  1  0.12582  0.73093  0.65328  1
 Pd  Pd7  1  0.37418  0.23093  0.84672  1
 Pd  Pd8  1  0.76907  0.37418  0.15328  1
 Se  Se1  1  0.50000  0.50000  0.50000  1
 Se  Se2  1  0.00000  0.00000  0.00000  1
