CIF file written using JARVIS-Tools package.
data_ZnB3Ir4
_symmetry_space_group_name_H-M  'Pmmm'
_cell_length_a       2.81504
_cell_length_b       2.84692
_cell_length_c       23.6114
_cell_angle_alpha    90
_cell_angle_beta     90
_cell_angle_gamma    90

_symmetry_Int_Tables_number  47
_chemical_formula_structural  ZnB3Ir4
_chemical_formula_sum  Zn2B6Ir8
_cell_volume  189.2266720530402
_cell_formula_units_Z  2
loop_
  _symmetry_equiv_pos_site_id
 _symmetry_equiv_pos_as_xyz
 1  'x, y, z'
loop_
 _atom_site_type_symbol
 _atom_site_label
 _atom_site_symmetry_multiplicity
 _atom_site_fract_x
 _atom_site_fract_y
 _atom_site_fract_z
 _atom_site_fract_occupancy
 B  B1  1  0.50000  0.00000  0.37672  1
 B  B2  1  0.00000  0.00000  0.12217  1
 B  B3  1  0.00000  0.00000  0.87783  1
 B  B4  1  0.00000  0.50000  0.23993  1
 B  B5  1  0.00000  0.50000  0.76007  1
 B  B6  1  0.50000  0.00000  0.62328  1
 Ir  Ir1  1  0.50000  0.50000  0.91585  1
 Ir  Ir2  1  0.50000  0.00000  0.19672  1
 Ir  Ir3  1  0.00000  0.00000  0.69280  1
 Ir  Ir4  1  0.50000  0.00000  0.80328  1
 Ir  Ir5  1  0.50000  0.50000  0.08415  1
 Ir  Ir6  1  0.00000  0.00000  0.30720  1
 Ir  Ir7  1  0.00000  0.50000  0.41712  1
 Ir  Ir8  1  0.00000  0.50000  0.58288  1
 Zn  Zn1  1  0.50000  0.00000  0.50000  1
 Zn  Zn2  1  0.00000  0.00000  0.00000  1
