CIF file written using JARVIS-Tools package.
data_MoRu3
_symmetry_space_group_name_H-M  'P6_3/mmc'
_cell_length_a       5.5016
_cell_length_b       5.5016
_cell_length_c       4.35683
_cell_angle_alpha    90
_cell_angle_beta     90
_cell_angle_gamma    120

_symmetry_Int_Tables_number  194
_chemical_formula_structural  MoRu3
_chemical_formula_sum  Mo2Ru6
_cell_volume  114.20334586009679
_cell_formula_units_Z  2
loop_
  _symmetry_equiv_pos_site_id
 _symmetry_equiv_pos_as_xyz
 1  'x, y, z'
loop_
 _atom_site_type_symbol
 _atom_site_label
 _atom_site_symmetry_multiplicity
 _atom_site_fract_x
 _atom_site_fract_y
 _atom_site_fract_z
 _atom_site_fract_occupancy
 Mo  Mo1  1  0.33333  0.66667  0.25000  1
 Mo  Mo2  1  0.66667  0.33333  0.75000  1
 Ru  Ru1  1  0.66677  0.83338  0.75000  1
 Ru  Ru2  1  0.16662  0.33323  0.75000  1
 Ru  Ru3  1  0.16662  0.83338  0.75000  1
 Ru  Ru4  1  0.33323  0.16662  0.25000  1
 Ru  Ru5  1  0.83338  0.66677  0.25000  1
 Ru  Ru6  1  0.83338  0.16662  0.25000  1
