CIF file written using JARVIS-Tools package.
data_UPd2S4
_symmetry_space_group_name_H-M  'I4_1/a'
_cell_length_a       6.75651
_cell_length_b       6.75651
_cell_length_c       7.63606
_cell_angle_alpha    116.258
_cell_angle_beta     116.258
_cell_angle_gamma    90

_symmetry_Int_Tables_number  88
_chemical_formula_structural  UPd2S4
_chemical_formula_sum  U2Pd4S8
_cell_volume  271.93292907166335
_cell_formula_units_Z  2
loop_
  _symmetry_equiv_pos_site_id
 _symmetry_equiv_pos_as_xyz
 1  'x, y, z'
loop_
 _atom_site_type_symbol
 _atom_site_label
 _atom_site_symmetry_multiplicity
 _atom_site_fract_x
 _atom_site_fract_y
 _atom_site_fract_z
 _atom_site_fract_occupancy
 Pd  Pd1  1  0.00000  0.50000  -0.00000  1
 Pd  Pd2  1  0.50000  0.50000  0.50000  1
 Pd  Pd3  1  0.00000  0.50000  0.50000  1
 Pd  Pd4  1  0.00000  0.00000  0.00000  1
 S  S1  1  0.23386  0.52857  0.85504  1
 S  S2  1  0.32647  0.73386  0.35504  1
 S  S3  1  0.02857  0.12119  0.35504  1
 S  S4  1  0.62119  0.82647  0.85504  1
 S  S5  1  0.76614  0.47143  0.14496  1
 S  S6  1  0.67353  0.26614  0.64496  1
 S  S7  1  0.37881  0.17353  0.14496  1
 S  S8  1  0.97143  0.87881  0.64496  1
 U  U1  1  0.37500  0.12500  0.75000  1
 U  U2  1  0.62500  0.87500  0.25000  1
