CIF file written using JARVIS-Tools package.
data_K2Be2PbF8
_symmetry_space_group_name_H-M  'R-3m'
_cell_length_a       7.5244
_cell_length_b       7.5244
_cell_length_c       7.5244
_cell_angle_alpha    42.4836
_cell_angle_beta     42.4837
_cell_angle_gamma    42.4836

_symmetry_Int_Tables_number  166
_chemical_formula_structural  K2Be2PbF8
_chemical_formula_sum  K2Be2PbF8
_cell_volume  175.9449029070531
_cell_formula_units_Z  1
loop_
  _symmetry_equiv_pos_site_id
 _symmetry_equiv_pos_as_xyz
 1  'x, y, z'
loop_
 _atom_site_type_symbol
 _atom_site_label
 _atom_site_symmetry_multiplicity
 _atom_site_fract_x
 _atom_site_fract_y
 _atom_site_fract_z
 _atom_site_fract_occupancy
 Be  Be1  1  0.59674  0.59674  0.59674  1
 Be  Be2  1  0.40326  0.40326  0.40326  1
 F  F1  1  0.25712  0.72830  0.72830  1
 F  F2  1  0.72830  0.25712  0.72830  1
 F  F3  1  0.72830  0.72830  0.25712  1
 F  F4  1  0.32738  0.32738  0.32738  1
 F  F5  1  0.67262  0.67262  0.67262  1
 F  F6  1  0.27170  0.74288  0.27170  1
 F  F7  1  0.27170  0.27170  0.74288  1
 F  F8  1  0.74288  0.27170  0.27170  1
 K  K1  1  0.20213  0.20213  0.20213  1
 K  K2  1  0.79787  0.79787  0.79787  1
 Pb  Pb1  1  0.00000  0.00000  0.00000  1
