CIF file written using JARVIS-Tools package.
data_ZnSn2O5
_symmetry_space_group_name_H-M  'P-1'
_cell_length_a       3.3115
_cell_length_b       5.59478
_cell_length_c       12.8702
_cell_angle_alpha    98.1641
_cell_angle_beta     90.0376
_cell_angle_gamma    106.73

_symmetry_Int_Tables_number  2
_chemical_formula_structural  ZnSn2O5
_chemical_formula_sum  Zn2Sn4O0
_cell_volume  225.82346647573158
_cell_formula_units_Z  2
loop_
  _symmetry_equiv_pos_site_id
 _symmetry_equiv_pos_as_xyz
 1  'x, y, z'
loop_
 _atom_site_type_symbol
 _atom_site_label
 _atom_site_symmetry_multiplicity
 _atom_site_fract_x
 _atom_site_fract_y
 _atom_site_fract_z
 _atom_site_fract_occupancy
 O  O1  1  0.31491  0.62654  0.74846  1
 O  O2  1  0.68615  0.37401  0.25145  1
 O  O3  1  0.18331  0.36176  0.04816  1
 O  O4  1  0.81778  0.63883  0.95175  1
 O  O5  1  0.17474  0.34511  0.43356  1
 O  O6  1  0.82628  0.65541  0.56635  1
 O  O7  1  0.39948  0.80720  0.37268  1
 O  O8  1  0.60158  0.19333  0.62724  1
 O  O9  1  0.06518  0.11814  0.82074  1
 O  O10  1  0.93589  0.88243  0.17918  1
 Sn  Sn1  1  0.76270  0.52450  0.11748  1
 Sn  Sn2  1  0.23839  0.47607  0.88244  1
 Sn  Sn3  1  0.20794  0.41221  0.59799  1
 Sn  Sn4  1  0.79311  0.58832  0.40192  1
 Zn  Zn1  1  0.49935  0.01464  0.25987  1
 Zn  Zn2  1  0.50171  0.98591  0.74006  1
