CIF file written using JARVIS-Tools package.
data_YAlO3
_symmetry_space_group_name_H-M  'Pnma'
_cell_length_a       5.20921
_cell_length_b       5.36621
_cell_length_c       7.42305
_cell_angle_alpha    90
_cell_angle_beta     90
_cell_angle_gamma    90

_symmetry_Int_Tables_number  62
_chemical_formula_structural  YAlO3
_chemical_formula_sum  Y4Al4O2
_cell_volume  207.5021686451765
_cell_formula_units_Z  4
loop_
  _symmetry_equiv_pos_site_id
 _symmetry_equiv_pos_as_xyz
 1  'x, y, z'
loop_
 _atom_site_type_symbol
 _atom_site_label
 _atom_site_symmetry_multiplicity
 _atom_site_fract_x
 _atom_site_fract_y
 _atom_site_fract_z
 _atom_site_fract_occupancy
 Al  Al1  1  0.00000  0.50000  0.00000  1
 Al  Al2  1  0.50000  0.00000  0.00000  1
 Al  Al3  1  0.50000  0.00000  0.50000  1
 Al  Al4  1  0.00000  0.50000  0.50000  1
 O  O1  1  0.08600  0.47708  0.25000  1
 O  O2  1  0.70516  0.29418  0.45473  1
 O  O3  1  0.41400  0.97708  0.25000  1
 O  O4  1  0.79484  0.79418  0.04527  1
 O  O5  1  0.29484  0.70582  0.95473  1
 O  O6  1  0.20516  0.20582  0.54527  1
 O  O7  1  0.79484  0.79418  0.45473  1
 O  O8  1  0.91400  0.52292  0.75000  1
 O  O9  1  0.70516  0.29418  0.04527  1
 O  O10  1  0.29484  0.70582  0.54527  1
 O  O11  1  0.58600  0.02292  0.75000  1
 O  O12  1  0.20516  0.20582  0.95473  1
 Y  Y1  1  0.98754  0.05396  0.25000  1
 Y  Y2  1  0.48754  0.44604  0.75000  1
 Y  Y3  1  0.51246  0.55396  0.25000  1
 Y  Y4  1  0.01246  0.94604  0.75000  1
