CIF file written using JARVIS-Tools package.
data_YbCuAs2
_symmetry_space_group_name_H-M  'P4/nmm'
_cell_length_a       3.98254
_cell_length_b       3.98254
_cell_length_c       9.69487
_cell_angle_alpha    90
_cell_angle_beta     90
_cell_angle_gamma    90

_symmetry_Int_Tables_number  129
_chemical_formula_structural  YbCuAs2
_chemical_formula_sum  Yb2Cu2As4
_cell_volume  153.7665703115743
_cell_formula_units_Z  2
loop_
  _symmetry_equiv_pos_site_id
 _symmetry_equiv_pos_as_xyz
 1  'x, y, z'
loop_
 _atom_site_type_symbol
 _atom_site_label
 _atom_site_symmetry_multiplicity
 _atom_site_fract_x
 _atom_site_fract_y
 _atom_site_fract_z
 _atom_site_fract_occupancy
 As  As1  1  0.50000  0.50000  0.00000  1
 As  As2  1  0.00000  0.00000  0.00000  1
 As  As3  1  0.50000  0.00000  0.34920  1
 As  As4  1  0.00000  0.50000  0.65080  1
 Cu  Cu1  1  0.50000  0.50000  0.50000  1
 Cu  Cu2  1  0.00000  0.00000  0.50000  1
 Yb  Yb1  1  0.00000  0.50000  0.24610  1
 Yb  Yb2  1  0.50000  0.00000  0.75390  1
