CIF file written using JARVIS-Tools package.
data_TbNi4P2
_symmetry_space_group_name_H-M  'P4_2/mnm'
_cell_length_a       7.1364
_cell_length_b       7.1364
_cell_length_c       3.62101
_cell_angle_alpha    90
_cell_angle_beta     90
_cell_angle_gamma    90

_symmetry_Int_Tables_number  136
_chemical_formula_structural  TbNi4P2
_chemical_formula_sum  Tb2Ni8P4
_cell_volume  184.41147522511454
_cell_formula_units_Z  2
loop_
  _symmetry_equiv_pos_site_id
 _symmetry_equiv_pos_as_xyz
 1  'x, y, z'
loop_
 _atom_site_type_symbol
 _atom_site_label
 _atom_site_symmetry_multiplicity
 _atom_site_fract_x
 _atom_site_fract_y
 _atom_site_fract_z
 _atom_site_fract_occupancy
 Ni  Ni1  1  0.08440  0.33693  0.00000  1
 Ni  Ni2  1  0.83693  0.41560  0.50000  1
 Ni  Ni3  1  0.16307  0.58440  0.50000  1
 Ni  Ni4  1  0.91560  0.66307  0.00000  1
 Ni  Ni5  1  0.41560  0.83693  0.50000  1
 Ni  Ni6  1  0.58440  0.16307  0.50000  1
 Ni  Ni7  1  0.33693  0.08440  0.00000  1
 Ni  Ni8  1  0.66307  0.91560  0.00000  1
 P  P1  1  0.77969  0.22031  0.00000  1
 P  P2  1  0.72031  0.72031  0.50000  1
 P  P3  1  0.27969  0.27969  0.50000  1
 P  P4  1  0.22031  0.77969  0.00000  1
 Tb  Tb1  1  0.00000  0.00000  0.50000  1
 Tb  Tb2  1  0.50000  0.50000  0.00000  1
