CIF file written using JARVIS-Tools package.
data_InS
_symmetry_space_group_name_H-M  'Pnnm'
_cell_length_a       4.00453
_cell_length_b       10.8265
_cell_length_c       6.01438
_cell_angle_alpha    90
_cell_angle_beta     131.722
_cell_angle_gamma    90

_symmetry_Int_Tables_number  58
_chemical_formula_structural  InS
_chemical_formula_sum  In4S4
_cell_volume  194.62194657173035
_cell_formula_units_Z  4
loop_
  _symmetry_equiv_pos_site_id
 _symmetry_equiv_pos_as_xyz
 1  'x, y, z'
loop_
 _atom_site_type_symbol
 _atom_site_label
 _atom_site_symmetry_multiplicity
 _atom_site_fract_x
 _atom_site_fract_y
 _atom_site_fract_z
 _atom_site_fract_occupancy
 In  In1  1  0.88073  0.12002  0.88090  1
 In  In2  1  0.88073  0.37998  0.38090  1
 In  In3  1  0.11927  0.87998  0.11910  1
 In  In4  1  0.11927  0.62002  0.61910  1
 S  S1  1  0.98169  0.65170  -0.01830  1
 S  S2  1  0.01831  0.15170  0.51830  1
 S  S3  1  0.01831  0.34830  0.01830  1
 S  S4  1  0.98169  0.84830  0.48170  1
