CIF file written using JARVIS-Tools package.
data_LiCoSiO4
_symmetry_space_group_name_H-M  'Cc'
_cell_length_a       5.28641
_cell_length_b       8.19366
_cell_length_c       5.28641
_cell_angle_alpha    103.692
_cell_angle_beta     53.2813
_cell_angle_gamma    88.6974

_symmetry_Int_Tables_number  9
_chemical_formula_structural  LiCoSiO4
_chemical_formula_sum  Li2Co2Si2O8
_cell_volume  174.3189836465184
_cell_formula_units_Z  2
loop_
  _symmetry_equiv_pos_site_id
 _symmetry_equiv_pos_as_xyz
 1  'x, y, z'
loop_
 _atom_site_type_symbol
 _atom_site_label
 _atom_site_symmetry_multiplicity
 _atom_site_fract_x
 _atom_site_fract_y
 _atom_site_fract_z
 _atom_site_fract_occupancy
 Co  Co1  1  0.29476  0.49300  0.03448  1
 Co  Co2  1  0.04148  0.99300  0.78775  1
 Li  Li1  1  0.77918  0.13107  0.57622  1
 Li  Li2  1  -0.05485  0.63107  0.91025  1
 O  O1  1  0.45802  0.30046  0.05645  1
 O  O2  1  0.78645  0.15401  0.22030  1
 O  O3  1  0.18185  0.12308  0.50039  1
 O  O4  1  0.29552  0.43010  0.66397  1
 O  O5  1  0.25599  0.80046  0.75848  1
 O  O6  1  0.56630  0.65401  0.94046  1
 O  O7  1  0.87732  0.62308  0.30493  1
 O  O8  1  0.73387  0.93010  0.72561  1
 Si  Si1  1  0.43151  0.25339  0.35832  1
 Si  Si2  1  0.60492  0.75339  0.68490  1
