CIF file written using JARVIS-Tools package.
data_CrReO4
_symmetry_space_group_name_H-M  'C2/m'
_cell_length_a       4.69661
_cell_length_b       5.45009
_cell_length_c       5.45008
_cell_angle_alpha    63.6038
_cell_angle_beta     88.3956
_cell_angle_gamma    88.3956

_symmetry_Int_Tables_number  12
_chemical_formula_structural  CrReO4
_chemical_formula_sum  Cr2Re2O8
_cell_volume  124.89306540870547
_cell_formula_units_Z  2
loop_
  _symmetry_equiv_pos_site_id
 _symmetry_equiv_pos_as_xyz
 1  'x, y, z'
loop_
 _atom_site_type_symbol
 _atom_site_label
 _atom_site_symmetry_multiplicity
 _atom_site_fract_x
 _atom_site_fract_y
 _atom_site_fract_z
 _atom_site_fract_occupancy
 Cr  Cr1  1  0.50749  0.26240  0.26240  1
 Cr  Cr2  1  0.49251  0.73760  0.73760  1
 O  O1  1  0.18659  0.59533  0.59533  1
 O  O2  1  0.81341  0.40467  0.40467  1
 O  O3  1  0.78732  0.87960  0.87960  1
 O  O4  1  0.21268  0.12040  0.12040  1
 O  O5  1  0.69377  0.38640  0.90659  1
 O  O6  1  0.30623  0.09341  0.61360  1
 O  O7  1  0.30623  0.61360  0.09341  1
 O  O8  1  0.69377  0.90659  0.38640  1
 Re  Re1  1  -0.00000  0.77699  0.22301  1
 Re  Re2  1  0.00000  0.22301  0.77699  1
