CIF file written using JARVIS-Tools package.
data_Ag3SI
_symmetry_space_group_name_H-M  'P2_1'
_cell_length_a       4.78644
_cell_length_b       4.59301
_cell_length_c       17.0528
_cell_angle_alpha    121.663
_cell_angle_beta     124.151
_cell_angle_gamma    90.003

_symmetry_Int_Tables_number  4
_chemical_formula_structural  Ag3SI
_chemical_formula_sum  Ag6S2I2
_cell_volume  239.83708261800697
_cell_formula_units_Z  2
loop_
  _symmetry_equiv_pos_site_id
 _symmetry_equiv_pos_as_xyz
 1  'x, y, z'
loop_
 _atom_site_type_symbol
 _atom_site_label
 _atom_site_symmetry_multiplicity
 _atom_site_fract_x
 _atom_site_fract_y
 _atom_site_fract_z
 _atom_site_fract_occupancy
 Ag  Ag1  1  0.33845  0.81450  0.91002  1
 Ag  Ag2  1  0.61252  0.85715  0.79196  1
 Ag  Ag3  1  0.39462  0.21329  0.43313  1
 Ag  Ag4  1  0.32609  0.56371  0.05861  1
 Ag  Ag5  1  0.64845  0.25520  0.31500  1
 Ag  Ag6  1  0.04160  0.50630  0.16638  1
 I  I1  1  0.95751  -0.00203  0.71374  1
 I  I2  1  0.05224  0.07184  0.51118  1
 S  S1  1  0.98004  0.12106  0.23287  1
 S  S2  1  -0.00153  0.94898  0.99211  1
