CIF file written using JARVIS-Tools package.
data_Th2Cu
_symmetry_space_group_name_H-M  'P6/mmm'
_cell_length_a       5.36958
_cell_length_b       5.36958
_cell_length_c       3.14694
_cell_angle_alpha    90
_cell_angle_beta     90
_cell_angle_gamma    120

_symmetry_Int_Tables_number  191
_chemical_formula_structural  Th2Cu
_chemical_formula_sum  Th2Cu
_cell_volume  78.57774023131559
_cell_formula_units_Z  1
loop_
  _symmetry_equiv_pos_site_id
 _symmetry_equiv_pos_as_xyz
 1  'x, y, z'
loop_
 _atom_site_type_symbol
 _atom_site_label
 _atom_site_symmetry_multiplicity
 _atom_site_fract_x
 _atom_site_fract_y
 _atom_site_fract_z
 _atom_site_fract_occupancy
 Cu  Cu1  1  0.00000  0.00000  0.00000  1
 Th  Th1  1  0.33333  0.66667  0.50000  1
 Th  Th2  1  0.66667  0.33333  0.50000  1
