CIF file written using JARVIS-Tools package.
data_BaAs2Pd2
_symmetry_space_group_name_H-M  'I4/mmm'
_cell_length_a       4.55466
_cell_length_b       4.55466
_cell_length_c       10.9236
_cell_angle_alpha    102.033
_cell_angle_beta     102.033
_cell_angle_gamma    90

_symmetry_Int_Tables_number  139
_chemical_formula_structural  BaAs2Pd2
_chemical_formula_sum  Ba2As4Pd4
_cell_volume  216.53636645118286
_cell_formula_units_Z  2
loop_
  _symmetry_equiv_pos_site_id
 _symmetry_equiv_pos_as_xyz
 1  'x, y, z'
loop_
 _atom_site_type_symbol
 _atom_site_label
 _atom_site_symmetry_multiplicity
 _atom_site_fract_x
 _atom_site_fract_y
 _atom_site_fract_z
 _atom_site_fract_occupancy
 As  As1  1  0.25000  0.75000  0.50000  1
 As  As2  1  0.93236  0.93236  0.86471  1
 As  As3  1  0.06764  0.06764  0.13529  1
 As  As4  1  0.75000  0.25000  0.50000  1
 Ba  Ba1  1  0.62340  0.62340  0.24680  1
 Ba  Ba2  1  0.37660  0.37660  0.75320  1
 Pd  Pd1  1  0.50000  0.00000  0.00000  1
 Pd  Pd2  1  0.19345  0.19345  0.38691  1
 Pd  Pd3  1  0.00000  0.50000  0.00000  1
 Pd  Pd4  1  0.80655  0.80655  0.61309  1
