CIF file written using JARVIS-Tools package.
data_Al2Sb2O7
_symmetry_space_group_name_H-M  'Fd-3m'
_cell_length_a       7.02657
_cell_length_b       7.02657
_cell_length_c       7.02657
_cell_angle_alpha    60
_cell_angle_beta     60
_cell_angle_gamma    59.9999

_symmetry_Int_Tables_number  227
_chemical_formula_structural  Al2Sb2O7
_chemical_formula_sum  Al4Sb4O4
_cell_volume  245.31006942807826
_cell_formula_units_Z  2
loop_
  _symmetry_equiv_pos_site_id
 _symmetry_equiv_pos_as_xyz
 1  'x, y, z'
loop_
 _atom_site_type_symbol
 _atom_site_label
 _atom_site_symmetry_multiplicity
 _atom_site_fract_x
 _atom_site_fract_y
 _atom_site_fract_z
 _atom_site_fract_occupancy
 Al  Al1  1  0.50000  0.00000  0.50000  1
 Al  Al2  1  -0.00000  0.50000  0.50000  1
 Al  Al3  1  0.50000  0.50000  0.00000  1
 Al  Al4  1  0.50000  0.50000  0.50000  1
 O  O1  1  0.62500  0.62500  0.62500  1
 O  O2  1  0.37500  0.37500  0.37500  1
 O  O3  1  0.63230  0.11770  0.63230  1
 O  O4  1  0.11770  0.63230  0.63230  1
 O  O5  1  0.88230  0.36770  0.88230  1
 O  O6  1  0.36770  0.88230  0.88230  1
 O  O7  1  0.36770  0.36770  0.88230  1
 O  O8  1  0.36770  0.88230  0.36770  1
 O  O9  1  0.63230  0.63230  0.11770  1
 O  O10  1  0.88230  0.88230  0.36770  1
 O  O11  1  0.11770  0.11770  0.63230  1
 O  O12  1  0.63230  0.11770  0.11770  1
 O  O13  1  0.88230  0.36770  0.36770  1
 O  O14  1  0.11770  0.63230  0.11770  1
 Sb  Sb1  1  0.00000  0.00000  0.00000  1
 Sb  Sb2  1  0.00000  0.00000  0.50000  1
 Sb  Sb3  1  0.50000  0.00000  0.00000  1
 Sb  Sb4  1  -0.00000  0.50000  0.00000  1
