CIF file written using JARVIS-Tools package.
data_BiOF
_symmetry_space_group_name_H-M  'P2_1/c'
_cell_length_a       5.79807
_cell_length_b       5.85026
_cell_length_c       6.06527
_cell_angle_alpha    90
_cell_angle_beta     96.6195
_cell_angle_gamma    90

_symmetry_Int_Tables_number  14
_chemical_formula_structural  BiOF
_chemical_formula_sum  Bi4O4F4
_cell_volume  204.363538127437
_cell_formula_units_Z  4
loop_
  _symmetry_equiv_pos_site_id
 _symmetry_equiv_pos_as_xyz
 1  'x, y, z'
loop_
 _atom_site_type_symbol
 _atom_site_label
 _atom_site_symmetry_multiplicity
 _atom_site_fract_x
 _atom_site_fract_y
 _atom_site_fract_z
 _atom_site_fract_occupancy
 Bi  Bi1  1  0.75653  0.54236  0.30201  1
 Bi  Bi2  1  0.75653  0.95764  0.80201  1
 Bi  Bi3  1  0.24347  0.04236  0.19799  1
 Bi  Bi4  1  0.24347  0.45764  0.69799  1
 F  F1  1  0.56034  0.24480  0.02276  1
 F  F2  1  0.56034  0.25520  0.52276  1
 F  F3  1  0.43966  0.74480  0.47724  1
 F  F4  1  0.43966  0.75520  0.97724  1
 O  O1  1  0.92835  0.82237  0.12424  1
 O  O2  1  0.92835  0.67763  0.62424  1
 O  O3  1  0.07165  0.32237  0.37576  1
 O  O4  1  0.07165  0.17763  0.87576  1
