CIF file written using JARVIS-Tools package.
data_Be17Nb2
_symmetry_space_group_name_H-M  'R-3m'
_cell_length_a       5.56924
_cell_length_b       5.56924
_cell_length_c       5.56924
_cell_angle_alpha    83.0793
_cell_angle_beta     83.0793
_cell_angle_gamma    83.0793

_symmetry_Int_Tables_number  166
_chemical_formula_structural  Be17Nb2
_chemical_formula_sum  Be7Nb2
_cell_volume  169.2430971050036
_cell_formula_units_Z  1
loop_
  _symmetry_equiv_pos_site_id
 _symmetry_equiv_pos_as_xyz
 1  'x, y, z'
loop_
 _atom_site_type_symbol
 _atom_site_label
 _atom_site_symmetry_multiplicity
 _atom_site_fract_x
 _atom_site_fract_y
 _atom_site_fract_z
 _atom_site_fract_occupancy
 Be  Be1  1  0.40126  0.40126  0.40126  1
 Be  Be2  1  0.20636  0.50000  0.79364  1
 Be  Be3  1  0.59874  0.59874  0.59874  1
 Be  Be4  1  0.50000  0.50000  0.00000  1
 Be  Be5  1  -0.00000  0.50000  0.50000  1
 Be  Be6  1  0.50000  -0.00000  0.50000  1
 Be  Be7  1  0.79364  0.50000  0.20636  1
 Be  Be8  1  0.20636  0.79364  0.50000  1
 Be  Be9  1  0.50000  0.20636  0.79364  1
 Be  Be10  1  0.50000  0.79364  0.20636  1
 Be  Be11  1  0.15355  0.66099  0.15355  1
 Be  Be12  1  0.15355  0.15355  0.66099  1
 Be  Be13  1  0.66099  0.15355  0.15355  1
 Be  Be14  1  0.33901  0.84645  0.84645  1
 Be  Be15  1  0.84645  0.33901  0.84645  1
 Be  Be16  1  0.84645  0.84645  0.33901  1
 Be  Be17  1  0.79364  0.20636  0.50000  1
 Nb  Nb1  1  0.16008  0.16008  0.16008  1
 Nb  Nb2  1  0.83992  0.83992  0.83992  1
