CIF file written using JARVIS-Tools package.
data_TlIn5S7
_symmetry_space_group_name_H-M  'P2_1/m'
_cell_length_a       9.22034
_cell_length_b       3.9414
_cell_length_c       17.5147
_cell_angle_alpha    90
_cell_angle_beta     102.192
_cell_angle_gamma    90

_symmetry_Int_Tables_number  11
_chemical_formula_structural  TlIn5S7
_chemical_formula_sum  Tl2In0S4
_cell_volume  622.1473557423994
_cell_formula_units_Z  2
loop_
  _symmetry_equiv_pos_site_id
 _symmetry_equiv_pos_as_xyz
 1  'x, y, z'
loop_
 _atom_site_type_symbol
 _atom_site_label
 _atom_site_symmetry_multiplicity
 _atom_site_fract_x
 _atom_site_fract_y
 _atom_site_fract_z
 _atom_site_fract_occupancy
 In  In1  1  0.85488  0.75000  0.04585  1
 In  In2  1  0.56586  0.25000  0.11958  1
 In  In3  1  0.47651  0.75000  0.39747  1
 In  In4  1  0.82765  0.25000  0.46755  1
 In  In5  1  0.31970  0.25000  0.18886  1
 In  In6  1  0.68030  0.75000  0.81114  1
 In  In7  1  0.43414  0.75000  0.88042  1
 In  In8  1  0.52349  0.25000  0.60253  1
 In  In9  1  0.14512  0.25000  0.95415  1
 In  In10  1  0.17235  0.75000  0.53245  1
 S  S1  1  0.05691  0.25000  0.09015  1
 S  S2  1  0.66428  0.25000  0.99333  1
 S  S3  1  0.73968  0.25000  0.72812  1
 S  S4  1  0.66964  0.75000  0.53299  1
 S  S5  1  0.25711  0.25000  0.82754  1
 S  S6  1  0.33036  0.25000  0.46701  1
 S  S7  1  0.96422  0.75000  0.41109  1
 S  S8  1  0.94309  0.75000  0.90985  1
 S  S9  1  0.03578  0.25000  0.58891  1
 S  S10  1  0.38501  0.75000  0.65280  1
 S  S11  1  0.61499  0.25000  0.34720  1
 S  S12  1  0.33572  0.75000  0.00667  1
 S  S13  1  0.26032  0.75000  0.27188  1
 S  S14  1  0.74289  0.75000  0.17246  1
 Tl  Tl1  1  0.02579  0.75000  0.72522  1
 Tl  Tl2  1  0.97421  0.25000  0.27478  1
