CIF file written using JARVIS-Tools package.
data_TmMgGa
_symmetry_space_group_name_H-M  'P-62m'
_cell_length_a       7.16498
_cell_length_b       7.16498
_cell_length_c       4.35901
_cell_angle_alpha    90
_cell_angle_beta     90
_cell_angle_gamma    120

_symmetry_Int_Tables_number  189
_chemical_formula_structural  TmMgGa
_chemical_formula_sum  Tm3Mg3Ga3
_cell_volume  193.79779721421713
_cell_formula_units_Z  3
loop_
  _symmetry_equiv_pos_site_id
 _symmetry_equiv_pos_as_xyz
 1  'x, y, z'
loop_
 _atom_site_type_symbol
 _atom_site_label
 _atom_site_symmetry_multiplicity
 _atom_site_fract_x
 _atom_site_fract_y
 _atom_site_fract_z
 _atom_site_fract_occupancy
 Ga  Ga1  1  0.66667  0.33333  0.50000  1
 Ga  Ga2  1  0.33333  0.66667  0.50000  1
 Ga  Ga3  1  0.00000  0.00000  0.00000  1
 Mg  Mg1  1  0.75551  0.00000  0.50000  1
 Mg  Mg2  1  0.24449  0.24449  0.50000  1
 Mg  Mg3  1  0.00000  0.75551  0.50000  1
 Tm  Tm1  1  0.42591  0.00000  0.00000  1
 Tm  Tm2  1  0.57409  0.57409  0.00000  1
 Tm  Tm3  1  0.00000  0.42591  0.00000  1
