CIF file written using JARVIS-Tools package.
data_Sr2SmNbO6
_symmetry_space_group_name_H-M  'P2_1/c'
_cell_length_a       5.878
_cell_length_b       6.01901
_cell_length_c       10.2142
_cell_angle_alpha    90
_cell_angle_beta     124.882
_cell_angle_gamma    90

_symmetry_Int_Tables_number  14
_chemical_formula_structural  Sr2SmNbO6
_chemical_formula_sum  Sr4Sm2Nb2O2
_cell_volume  296.4473422116492
_cell_formula_units_Z  2
loop_
  _symmetry_equiv_pos_site_id
 _symmetry_equiv_pos_as_xyz
 1  'x, y, z'
loop_
 _atom_site_type_symbol
 _atom_site_label
 _atom_site_symmetry_multiplicity
 _atom_site_fract_x
 _atom_site_fract_y
 _atom_site_fract_z
 _atom_site_fract_occupancy
 Nb  Nb1  1  0.50000  0.50000  0.00000  1
 Nb  Nb2  1  0.50000  0.00000  0.50000  1
 O  O1  1  0.73058  0.31013  0.95314  1
 O  O2  1  0.36711  0.22302  0.05313  1
 O  O3  1  0.26942  0.68987  0.04686  1
 O  O4  1  0.63289  0.77698  0.94687  1
 O  O5  1  0.36711  0.27698  0.55313  1
 O  O6  1  0.63289  0.72302  0.44687  1
 O  O7  1  0.17432  0.46688  0.76803  1
 O  O8  1  0.17432  0.03312  0.26803  1
 O  O9  1  0.73058  0.18987  0.45314  1
 O  O10  1  0.82568  0.96688  0.73197  1
 O  O11  1  0.26942  0.81013  0.54686  1
 O  O12  1  0.82568  0.53312  0.23197  1
 Sm  Sm1  1  0.00000  0.00000  0.00000  1
 Sm  Sm2  1  -0.00000  0.50000  0.50000  1
 Sr  Sr1  1  0.73969  0.54492  0.75097  1
 Sr  Sr2  1  0.26031  0.04492  0.74903  1
 Sr  Sr3  1  0.26031  0.45508  0.24903  1
 Sr  Sr4  1  0.73969  0.95508  0.25097  1
