CIF file written using JARVIS-Tools package.
data_CaMo2O4
_symmetry_space_group_name_H-M  'I4_1/amd'
_cell_length_a       5.90564
_cell_length_b       5.90564
_cell_length_c       6.61133
_cell_angle_alpha    116.528
_cell_angle_beta     116.528
_cell_angle_gamma    90

_symmetry_Int_Tables_number  141
_chemical_formula_structural  CaMo2O4
_chemical_formula_sum  Ca2Mo4O8
_cell_volume  178.7623020357098
_cell_formula_units_Z  2
loop_
  _symmetry_equiv_pos_site_id
 _symmetry_equiv_pos_as_xyz
 1  'x, y, z'
loop_
 _atom_site_type_symbol
 _atom_site_label
 _atom_site_symmetry_multiplicity
 _atom_site_fract_x
 _atom_site_fract_y
 _atom_site_fract_z
 _atom_site_fract_occupancy
 Ca  Ca1  1  0.37500  0.62500  0.75000  1
 Ca  Ca2  1  0.62500  0.37500  0.25000  1
 Mo  Mo1  1  -0.00000  -0.00000  0.50000  1
 Mo  Mo2  1  0.00000  0.50000  0.00000  1
 Mo  Mo3  1  0.50000  0.00000  0.50000  1
 Mo  Mo4  1  0.00000  0.00000  0.00000  1
 O  O1  1  0.79157  0.79195  0.58314  1
 O  O2  1  0.70882  0.20843  0.91686  1
 O  O3  1  0.20805  0.20843  0.91686  1
 O  O4  1  0.20843  0.20805  0.41686  1
 O  O5  1  0.20843  0.70882  0.41686  1
 O  O6  1  0.29118  0.79157  0.08314  1
 O  O7  1  0.79157  0.29118  0.58314  1
 O  O8  1  0.79195  0.79157  0.08314  1
