CIF file written using JARVIS-Tools package.
data_Na3Ca3AlAs4
_symmetry_space_group_name_H-M  'P6_3mc'
_cell_length_a       9.41375
_cell_length_b       9.41375
_cell_length_c       7.18406
_cell_angle_alpha    90
_cell_angle_beta     90
_cell_angle_gamma    120

_symmetry_Int_Tables_number  186
_chemical_formula_structural  Na3Ca3AlAs4
_chemical_formula_sum  Na6Ca6Al2As8
_cell_volume  551.3482342517336
_cell_formula_units_Z  2
loop_
  _symmetry_equiv_pos_site_id
 _symmetry_equiv_pos_as_xyz
 1  'x, y, z'
loop_
 _atom_site_type_symbol
 _atom_site_label
 _atom_site_symmetry_multiplicity
 _atom_site_fract_x
 _atom_site_fract_y
 _atom_site_fract_z
 _atom_site_fract_occupancy
 Al  Al1  1  0.66667  0.33333  0.62098  1
 Al  Al2  1  0.33333  0.66667  0.12098  1
 As  As1  1  0.66667  0.33333  0.26969  1
 As  As2  1  0.18973  0.37945  0.22886  1
 As  As3  1  0.62055  0.81027  0.22886  1
 As  As4  1  0.37945  0.18973  0.72886  1
 As  As5  1  0.81027  0.62055  0.72886  1
 As  As6  1  0.18973  0.81027  0.22886  1
 As  As7  1  0.33333  0.66667  0.76969  1
 As  As8  1  0.81027  0.18973  0.72886  1
 Ca  Ca1  1  0.52511  0.05021  0.99954  1
 Ca  Ca2  1  0.05021  0.52511  0.49954  1
 Ca  Ca3  1  0.52511  0.47489  0.99954  1
 Ca  Ca4  1  0.47489  0.52511  0.49954  1
 Ca  Ca5  1  0.47489  0.94979  0.49954  1
 Ca  Ca6  1  0.94979  0.47489  0.99954  1
 Na  Na1  1  0.86366  0.13634  0.32781  1
 Na  Na2  1  0.13634  0.27269  0.82781  1
 Na  Na3  1  0.72731  0.86366  0.82781  1
 Na  Na4  1  0.27269  0.13634  0.32781  1
 Na  Na5  1  0.86366  0.72731  0.32781  1
 Na  Na6  1  0.13634  0.86366  0.82781  1
