CIF file written using JARVIS-Tools package.
data_Li3NbO4
_symmetry_space_group_name_H-M  'I-43m'
_cell_length_a       7.32911
_cell_length_b       7.32911
_cell_length_c       7.32911
_cell_angle_alpha    109.471
_cell_angle_beta     109.471
_cell_angle_gamma    109.471

_symmetry_Int_Tables_number  217
_chemical_formula_structural  Li3NbO4
_chemical_formula_sum  Li2Nb4O6
_cell_volume  303.06182167481154
_cell_formula_units_Z  4
loop_
  _symmetry_equiv_pos_site_id
 _symmetry_equiv_pos_as_xyz
 1  'x, y, z'
loop_
 _atom_site_type_symbol
 _atom_site_label
 _atom_site_symmetry_multiplicity
 _atom_site_fract_x
 _atom_site_fract_y
 _atom_site_fract_z
 _atom_site_fract_occupancy
 Li  Li1  1  0.51519  0.27399  0.99999  1
 Li  Li2  1  0.27400  0.51520  0.00001  1
 Li  Li3  1  0.72600  0.72601  0.24120  1
 Li  Li4  1  0.48480  0.75880  0.48481  1
 Li  Li5  1  0.48481  0.48480  0.75880  1
 Li  Li6  1  0.72601  0.24120  0.72600  1
 Li  Li7  1  0.00001  0.27400  0.51520  1
 Li  Li8  1  0.27399  0.99999  0.51519  1
 Li  Li9  1  0.24120  0.72600  0.72601  1
 Li  Li10  1  0.51520  0.00001  0.27400  1
 Li  Li11  1  0.99999  0.51519  0.27399  1
 Li  Li12  1  0.75880  0.48481  0.48480  1
 Nb  Nb1  1  0.00000  0.71791  -0.00000  1
 Nb  Nb2  1  0.71791  0.00000  0.00000  1
 Nb  Nb3  1  0.28209  0.28209  0.28209  1
 Nb  Nb4  1  -0.00000  -0.00000  0.71791  1
 O  O1  1  0.00000  0.51159  0.75767  1
 O  O2  1  0.77141  0.77141  0.77141  1
 O  O3  1  0.00000  0.22859  -0.00000  1
 O  O4  1  -0.00000  -0.00000  0.22859  1
 O  O5  1  0.22859  0.00000  0.00000  1
 O  O6  1  0.24609  0.48841  0.48841  1
 O  O7  1  0.75767  0.00000  0.51159  1
 O  O8  1  0.24233  0.24233  0.75391  1
 O  O9  1  0.51159  0.75767  0.00000  1
 O  O10  1  0.24233  0.75391  0.24233  1
 O  O11  1  0.48841  0.24609  0.48841  1
 O  O12  1  0.48841  0.48841  0.24609  1
 O  O13  1  -0.00000  0.75767  0.51159  1
 O  O14  1  0.75767  0.51159  -0.00000  1
 O  O15  1  0.51159  -0.00000  0.75767  1
 O  O16  1  0.75391  0.24233  0.24233  1
