CIF file written using JARVIS-Tools package.
data_KMnPH2O5
_symmetry_space_group_name_H-M  'Pmn2_1'
_cell_length_a       4.86187
_cell_length_b       5.70342
_cell_length_c       8.31732
_cell_angle_alpha    90
_cell_angle_beta     90
_cell_angle_gamma    90

_symmetry_Int_Tables_number  31
_chemical_formula_structural  KMnPH2O5
_chemical_formula_sum  K2Mn2P2H4O0
_cell_volume  230.63348204301815
_cell_formula_units_Z  2
loop_
  _symmetry_equiv_pos_site_id
 _symmetry_equiv_pos_as_xyz
 1  'x, y, z'
loop_
 _atom_site_type_symbol
 _atom_site_label
 _atom_site_symmetry_multiplicity
 _atom_site_fract_x
 _atom_site_fract_y
 _atom_site_fract_z
 _atom_site_fract_occupancy
 H  H1  1  0.57318  0.86138  0.79785  1
 H  H2  1  0.07318  0.63862  0.20215  1
 H  H3  1  0.57318  0.13862  0.79785  1
 H  H4  1  0.07318  0.36138  0.20215  1
 K  K1  1  0.62811  0.50000  0.45842  1
 K  K2  1  0.12811  0.00000  0.54158  1
 Mn  Mn1  1  0.02297  0.00000  0.98001  1
 Mn  Mn2  1  0.52297  0.50000  0.01999  1
 O  O1  1  0.22503  0.28152  0.86161  1
 O  O2  1  0.72503  0.78152  0.13839  1
 O  O3  1  0.19445  0.50000  0.21421  1
 O  O4  1  0.69445  0.00000  0.78579  1
 O  O5  1  0.27244  0.00000  0.18487  1
 O  O6  1  0.77244  0.50000  0.81513  1
 O  O7  1  0.63523  0.00000  0.40243  1
 O  O8  1  0.13523  0.50000  0.59757  1
 O  O9  1  0.72503  0.21848  0.13839  1
 O  O10  1  0.22503  0.71848  0.86161  1
 P  P1  1  0.58340  0.00000  0.22143  1
 P  P2  1  0.08340  0.50000  0.77857  1
