CIF file written using JARVIS-Tools package.
data_Sr2Ge
_symmetry_space_group_name_H-M  'Pnma'
_cell_length_a       5.15414
_cell_length_b       8.08352
_cell_length_c       9.57357
_cell_angle_alpha    90
_cell_angle_beta     90
_cell_angle_gamma    90

_symmetry_Int_Tables_number  62
_chemical_formula_structural  Sr2Ge
_chemical_formula_sum  Sr8Ge4
_cell_volume  398.86975522961257
_cell_formula_units_Z  4
loop_
  _symmetry_equiv_pos_site_id
 _symmetry_equiv_pos_as_xyz
 1  'x, y, z'
loop_
 _atom_site_type_symbol
 _atom_site_label
 _atom_site_symmetry_multiplicity
 _atom_site_fract_x
 _atom_site_fract_y
 _atom_site_fract_z
 _atom_site_fract_occupancy
 Ge  Ge1  1  0.25000  0.75224  0.60131  1
 Ge  Ge2  1  0.75000  0.24776  0.39869  1
 Ge  Ge3  1  0.25000  0.25224  0.89869  1
 Ge  Ge4  1  0.75000  0.74776  0.10131  1
 Sr  Sr1  1  0.75000  0.34818  0.07880  1
 Sr  Sr2  1  0.25000  0.65182  0.92120  1
 Sr  Sr3  1  0.75000  0.84818  0.42120  1
 Sr  Sr4  1  0.25000  0.15182  0.57880  1
 Sr  Sr5  1  0.25000  0.01838  0.17529  1
 Sr  Sr6  1  0.75000  0.98162  0.82471  1
 Sr  Sr7  1  0.25000  0.51838  0.32471  1
 Sr  Sr8  1  0.75000  0.48162  0.67529  1
