CIF file written using JARVIS-Tools package.
data_BaSi3SnO9
_symmetry_space_group_name_H-M  'P-6c2'
_cell_length_a       6.8083
_cell_length_b       6.8083
_cell_length_c       9.97896
_cell_angle_alpha    90
_cell_angle_beta     90
_cell_angle_gamma    120

_symmetry_Int_Tables_number  188
_chemical_formula_structural  BaSi3SnO9
_chemical_formula_sum  Ba2Si6Sn2O8
_cell_volume  400.5833863663592
_cell_formula_units_Z  2
loop_
  _symmetry_equiv_pos_site_id
 _symmetry_equiv_pos_as_xyz
 1  'x, y, z'
loop_
 _atom_site_type_symbol
 _atom_site_label
 _atom_site_symmetry_multiplicity
 _atom_site_fract_x
 _atom_site_fract_y
 _atom_site_fract_z
 _atom_site_fract_occupancy
 Ba  Ba1  1  0.33333  0.66667  0.50000  1
 Ba  Ba2  1  0.33333  0.66667  0.00000  1
 O  O1  1  0.65471  0.07494  0.38589  1
 O  O2  1  0.65471  0.57977  0.61411  1
 O  O3  1  0.42023  0.34529  0.38589  1
 O  O4  1  0.65471  0.57977  0.88589  1
 O  O5  1  0.42023  0.34529  0.11411  1
 O  O6  1  0.92506  0.57977  0.11411  1
 O  O7  1  0.65471  0.07494  0.11411  1
 O  O8  1  0.92506  0.57977  0.38589  1
 O  O9  1  0.92506  0.34529  0.88589  1
 O  O10  1  0.92506  0.34529  0.61411  1
 O  O11  1  0.05552  0.80568  0.75000  1
 O  O12  1  0.19432  0.24984  0.75000  1
 O  O13  1  0.75016  0.94448  0.75000  1
 O  O14  1  0.05552  0.24984  0.25000  1
 O  O15  1  0.75016  0.80568  0.25000  1
 O  O16  1  0.19432  0.94448  0.25000  1
 O  O17  1  0.42023  0.07494  0.88589  1
 O  O18  1  0.42023  0.07494  0.61411  1
 Si  Si1  1  0.78056  0.71677  0.75000  1
 Si  Si2  1  0.28323  0.06379  0.75000  1
 Si  Si3  1  0.93621  0.21944  0.75000  1
 Si  Si4  1  0.78056  0.06379  0.25000  1
 Si  Si5  1  0.93621  0.71677  0.25000  1
 Si  Si6  1  0.28323  0.21944  0.25000  1
 Sn  Sn1  1  0.66667  0.33333  0.50000  1
 Sn  Sn2  1  0.66667  0.33333  0.00000  1
