CIF file written using JARVIS-Tools package.
data_Er2Pd2Pb
_symmetry_space_group_name_H-M  'P4/mbm'
_cell_length_a       7.83647
_cell_length_b       7.83647
_cell_length_c       3.58175
_cell_angle_alpha    90
_cell_angle_beta     90
_cell_angle_gamma    90

_symmetry_Int_Tables_number  127
_chemical_formula_structural  Er2Pd2Pb
_chemical_formula_sum  Er4Pd4Pb2
_cell_volume  219.95600221221224
_cell_formula_units_Z  2
loop_
  _symmetry_equiv_pos_site_id
 _symmetry_equiv_pos_as_xyz
 1  'x, y, z'
loop_
 _atom_site_type_symbol
 _atom_site_label
 _atom_site_symmetry_multiplicity
 _atom_site_fract_x
 _atom_site_fract_y
 _atom_site_fract_z
 _atom_site_fract_occupancy
 Er  Er1  1  0.67014  0.17014  0.50000  1
 Er  Er2  1  0.17014  0.32986  0.50000  1
 Er  Er3  1  0.82986  0.67014  0.50000  1
 Er  Er4  1  0.32986  0.82986  0.50000  1
 Pb  Pb1  1  0.00000  0.00000  0.00000  1
 Pb  Pb2  1  0.50000  0.50000  0.00000  1
 Pd  Pd1  1  0.37398  0.12602  0.00000  1
 Pd  Pd2  1  0.12602  0.62602  0.00000  1
 Pd  Pd3  1  0.62602  0.87398  0.00000  1
 Pd  Pd4  1  0.87398  0.37398  0.00000  1
