CIF file written using JARVIS-Tools package.
data_BH5CN2
_symmetry_space_group_name_H-M  'Pna2_1'
_cell_length_a       7.7224
_cell_length_b       6.38299
_cell_length_c       6.70102
_cell_angle_alpha    90
_cell_angle_beta     90
_cell_angle_gamma    90

_symmetry_Int_Tables_number  33
_chemical_formula_structural  BH5CN2
_chemical_formula_sum  B4H20C4N8
_cell_volume  330.3065716245313
_cell_formula_units_Z  4
loop_
  _symmetry_equiv_pos_site_id
 _symmetry_equiv_pos_as_xyz
 1  'x, y, z'
loop_
 _atom_site_type_symbol
 _atom_site_label
 _atom_site_symmetry_multiplicity
 _atom_site_fract_x
 _atom_site_fract_y
 _atom_site_fract_z
 _atom_site_fract_occupancy
 B  B1  1  0.72783  0.12731  0.65219  1
 B  B2  1  0.27217  0.87269  0.15219  1
 B  B3  1  0.77217  0.62731  0.15219  1
 B  B4  1  0.22783  0.37269  0.65219  1
 C  C1  1  0.43002  0.02791  0.13210  1
 C  C2  1  0.56998  0.97209  0.63210  1
 C  C3  1  0.93002  0.47209  0.13210  1
 C  C4  1  0.06998  0.52791  0.63210  1
 H  H1  1  0.21927  0.96130  0.46104  1
 H  H2  1  0.89223  0.89438  0.79436  1
 H  H3  1  0.10777  0.10562  0.29436  1
 H  H4  1  0.60777  0.39438  0.29436  1
 H  H5  1  0.39223  0.60562  0.79436  1
 H  H6  1  0.95394  0.13893  0.84963  1
 H  H7  1  0.54606  0.63893  0.34963  1
 H  H8  1  0.04606  0.86107  0.34963  1
 H  H9  1  0.78073  0.03870  0.96104  1
 H  H10  1  0.30891  0.36905  0.49661  1
 H  H11  1  0.69109  0.63095  -0.00339  1
 H  H12  1  0.45394  0.36107  0.84963  1
 H  H13  1  0.80891  0.13095  0.49661  1
 H  H14  1  0.17545  0.19882  0.69581  1
 H  H15  1  0.19109  0.86905  -0.00339  1
 H  H16  1  0.67545  0.30118  0.69581  1
 H  H17  1  0.28073  0.46130  0.96104  1
 H  H18  1  0.71927  0.53870  0.46104  1
 H  H19  1  0.32455  0.69882  0.19581  1
 H  H20  1  0.82455  0.80118  0.19581  1
 N  N1  1  0.54680  0.14310  0.11859  1
 N  N2  1  0.04680  0.35690  0.11859  1
 N  N3  1  0.84783  0.04363  0.82767  1
 N  N4  1  0.15217  0.95637  0.32767  1
 N  N5  1  0.65217  0.54363  0.32767  1
 N  N6  1  0.34783  0.45637  0.82767  1
 N  N7  1  0.45320  0.85690  0.61859  1
 N  N8  1  0.95320  0.64310  0.61859  1
