CIF file written using JARVIS-Tools package.
data_Mo3WSe8
_symmetry_space_group_name_H-M  'P3m1'
_cell_length_a       3.32754
_cell_length_b       3.32754
_cell_length_c       35.1712
_cell_angle_alpha    90.0008
_cell_angle_beta     90
_cell_angle_gamma    120

_symmetry_Int_Tables_number  156
_chemical_formula_structural  Mo3WSe8
_chemical_formula_sum  Mo3WSe8
_cell_volume  337.2590440344139
_cell_formula_units_Z  1
loop_
  _symmetry_equiv_pos_site_id
 _symmetry_equiv_pos_as_xyz
 1  'x, y, z'
loop_
 _atom_site_type_symbol
 _atom_site_label
 _atom_site_symmetry_multiplicity
 _atom_site_fract_x
 _atom_site_fract_y
 _atom_site_fract_z
 _atom_site_fract_occupancy
 Mo  Mo1  1  0.33331  0.66663  0.09484  1
 Mo  Mo2  1  0.33332  0.66665  0.46922  1
 Mo  Mo3  1  0.66668  0.33336  0.28208  1
 Se  Se1  1  0.33336  0.66671  0.32966  1
 Se  Se2  1  0.33335  0.66671  0.70456  1
 Se  Se3  1  0.66664  0.33328  0.04731  1
 Se  Se4  1  0.66665  0.33330  0.42164  1
 Se  Se5  1  0.66665  0.33329  0.14243  1
 Se  Se6  1  0.66666  0.33332  0.51680  1
 Se  Se7  1  0.33334  0.66668  0.23450  1
 Se  Se8  1  0.33335  0.66669  0.60893  1
 W  W1  1  0.66668  0.33337  0.65678  1
