CIF file written using JARVIS-Tools package.
data_K6MgO4
_symmetry_space_group_name_H-M  'P6_3mc'
_cell_length_a       8.48263
_cell_length_b       8.48263
_cell_length_c       6.58306
_cell_angle_alpha    90
_cell_angle_beta     90
_cell_angle_gamma    120

_symmetry_Int_Tables_number  186
_chemical_formula_structural  K6MgO4
_chemical_formula_sum  K2Mg2O8
_cell_volume  410.2218222586733
_cell_formula_units_Z  2
loop_
  _symmetry_equiv_pos_site_id
 _symmetry_equiv_pos_as_xyz
 1  'x, y, z'
loop_
 _atom_site_type_symbol
 _atom_site_label
 _atom_site_symmetry_multiplicity
 _atom_site_fract_x
 _atom_site_fract_y
 _atom_site_fract_z
 _atom_site_fract_occupancy
 K  K1  1  0.07117  0.53558  0.67981  1
 K  K2  1  0.46442  0.92883  0.67981  1
 K  K3  1  0.46442  0.53558  0.67981  1
 K  K4  1  0.53558  0.46442  0.17981  1
 K  K5  1  0.92883  0.46442  0.17981  1
 K  K6  1  0.28592  0.14296  0.50062  1
 K  K7  1  0.53558  0.07117  0.17981  1
 K  K8  1  0.71408  0.85704  0.00062  1
 K  K9  1  0.14296  0.85704  0.00062  1
 K  K10  1  0.85704  0.14296  0.50062  1
 K  K11  1  0.14296  0.28592  0.00062  1
 K  K12  1  0.85704  0.71408  0.50062  1
 Mg  Mg1  1  0.33333  0.66667  0.28345  1
 Mg  Mg2  1  0.66667  0.33333  0.78345  1
 O  O1  1  0.79884  0.20116  0.88397  1
 O  O2  1  0.40232  0.20116  0.88397  1
 O  O3  1  0.33333  0.66667  0.97755  1
 O  O4  1  0.66667  0.33333  0.47755  1
 O  O5  1  0.79884  0.59768  0.88397  1
 O  O6  1  0.59768  0.79884  0.38397  1
 O  O7  1  0.20116  0.79884  0.38397  1
 O  O8  1  0.20116  0.40232  0.38397  1
