CIF file written using JARVIS-Tools package.
data_Zr3InF15
_symmetry_space_group_name_H-M  'R-3c'
_cell_length_a       7.97016
_cell_length_b       7.97016
_cell_length_c       7.97016
_cell_angle_alpha    99.8127
_cell_angle_beta     99.8127
_cell_angle_gamma    99.8126

_symmetry_Int_Tables_number  167
_chemical_formula_structural  Zr3InF15
_chemical_formula_sum  Zr6In2F30
_cell_volume  481.1015406960522
_cell_formula_units_Z  2
loop_
  _symmetry_equiv_pos_site_id
 _symmetry_equiv_pos_as_xyz
 1  'x, y, z'
loop_
 _atom_site_type_symbol
 _atom_site_label
 _atom_site_symmetry_multiplicity
 _atom_site_fract_x
 _atom_site_fract_y
 _atom_site_fract_z
 _atom_site_fract_occupancy
 F  F1  1  0.82602  0.35259  0.45306  1
 F  F2  1  0.02118  0.78717  0.77692  1
 F  F3  1  0.17398  0.64741  0.54694  1
 F  F4  1  0.53785  0.25000  0.96215  1
 F  F5  1  0.52118  0.27692  0.28717  1
 F  F6  1  0.67398  0.04694  0.14741  1
 F  F7  1  0.71283  0.47882  0.72308  1
 F  F8  1  0.72308  0.71283  0.47882  1
 F  F9  1  0.54694  0.17398  0.64741  1
 F  F10  1  0.85259  0.32602  0.95306  1
 F  F11  1  0.75000  0.03785  0.46215  1
 F  F12  1  0.64741  0.54694  0.17398  1
 F  F13  1  0.95306  0.85259  0.32602  1
 F  F14  1  0.77692  0.02118  0.78717  1
 F  F15  1  0.78717  0.77692  0.02118  1
 F  F16  1  0.21283  0.22308  0.97882  1
 F  F17  1  0.22308  0.97882  0.21283  1
 F  F18  1  0.03785  0.46215  0.75000  1
 F  F19  1  0.35259  0.45306  0.82602  1
 F  F20  1  0.14741  0.67398  0.04694  1
 F  F21  1  0.04694  0.14741  0.67398  1
 F  F22  1  0.97882  0.21283  0.22308  1
 F  F23  1  0.25000  0.96215  0.53785  1
 F  F24  1  0.46215  0.75000  0.03785  1
 F  F25  1  0.96215  0.53785  0.25000  1
 F  F26  1  0.32602  0.95306  0.85259  1
 F  F27  1  0.28717  0.52118  0.27692  1
 F  F28  1  0.27692  0.28717  0.52118  1
 F  F29  1  0.45306  0.82602  0.35259  1
 F  F30  1  0.47882  0.72308  0.71283  1
 In  In1  1  0.25000  0.25000  0.25000  1
 In  In2  1  0.75000  0.75000  0.75000  1
 Zr  Zr1  1  0.75000  0.31942  0.18058  1
 Zr  Zr2  1  0.25000  0.68058  0.81942  1
 Zr  Zr3  1  0.18058  0.75000  0.31942  1
 Zr  Zr4  1  0.81942  0.25000  0.68058  1
 Zr  Zr5  1  0.31942  0.18058  0.75000  1
 Zr  Zr6  1  0.68058  0.81942  0.25000  1
