CIF file written using JARVIS-Tools package.
data_BaV2P4O14
_symmetry_space_group_name_H-M  'P-1'
_cell_length_a       6.21123
_cell_length_b       6.29465
_cell_length_c       7.88443
_cell_angle_alpha    96.1395
_cell_angle_beta     101.525
_cell_angle_gamma    105.758

_symmetry_Int_Tables_number  2
_chemical_formula_structural  BaV2P4O14
_chemical_formula_sum  BaV2P4O4
_cell_volume  286.4140294865489
_cell_formula_units_Z  1
loop_
  _symmetry_equiv_pos_site_id
 _symmetry_equiv_pos_as_xyz
 1  'x, y, z'
loop_
 _atom_site_type_symbol
 _atom_site_label
 _atom_site_symmetry_multiplicity
 _atom_site_fract_x
 _atom_site_fract_y
 _atom_site_fract_z
 _atom_site_fract_occupancy
 Ba  Ba1  1  0.00000  0.00000  0.00000  1
 O  O1  1  0.78624  0.35723  0.03527  1
 O  O2  1  0.43457  0.02391  0.21665  1
 O  O3  1  0.21376  0.64277  0.96473  1
 O  O4  1  0.06793  0.68117  0.26770  1
 O  O5  1  0.56543  0.97609  0.78335  1
 O  O6  1  0.93207  0.31883  0.73230  1
 O  O7  1  0.46701  0.23019  0.52260  1
 O  O8  1  0.68517  0.63506  0.75872  1
 O  O9  1  0.74131  0.40117  0.34576  1
 O  O10  1  0.67104  0.69288  0.15552  1
 O  O11  1  0.25869  0.59883  0.65424  1
 O  O12  1  0.32896  0.30712  0.84448  1
 O  O13  1  0.53299  0.76981  0.47740  1
 O  O14  1  0.31483  0.36494  0.24128  1
 P  P1  1  0.51885  0.75215  0.66431  1
 P  P2  1  0.81966  0.53571  0.19471  1
 P  P3  1  0.48115  0.24785  0.33569  1
 P  P4  1  0.18034  0.46429  0.80529  1
 V  V1  1  0.62131  0.30481  0.77406  1
 V  V2  1  0.37869  0.69519  0.22594  1
