CIF file written using JARVIS-Tools package.
data_NaS2
_symmetry_space_group_name_H-M  'I-42d'
_cell_length_a       8.94694
_cell_length_b       8.94694
_cell_length_c       8.94694
_cell_angle_alpha    98.5029
_cell_angle_beta     115.219
_cell_angle_gamma    115.218

_symmetry_Int_Tables_number  122
_chemical_formula_structural  NaS2
_chemical_formula_sum  Na8S6
_cell_volume  536.6023637141933
_cell_formula_units_Z  8
loop_
  _symmetry_equiv_pos_site_id
 _symmetry_equiv_pos_as_xyz
 1  'x, y, z'
loop_
 _atom_site_type_symbol
 _atom_site_label
 _atom_site_symmetry_multiplicity
 _atom_site_fract_x
 _atom_site_fract_y
 _atom_site_fract_z
 _atom_site_fract_occupancy
 Na  Na1  1  0.00000  0.17133  0.17133  1
 Na  Na2  1  -0.00000  0.82867  0.82867  1
 Na  Na3  1  0.50000  0.57867  0.07867  1
 Na  Na4  1  0.50000  0.92133  0.42133  1
 Na  Na5  1  0.52522  0.37500  0.40022  1
 Na  Na6  1  0.97478  0.59978  0.12500  1
 Na  Na7  1  0.02522  0.15022  0.62500  1
 Na  Na8  1  0.47478  0.87500  0.84978  1
 S  S1  1  0.28319  0.54746  0.32548  1
 S  S2  1  0.22199  0.67452  0.95772  1
 S  S3  1  0.77801  0.73573  0.45254  1
 S  S4  1  0.76120  0.29433  0.76464  1
 S  S5  1  0.27801  0.20254  0.98573  1
 S  S6  1  0.71681  0.04228  0.26427  1
 S  S7  1  0.72199  0.70772  0.92452  1
 S  S8  1  0.02970  0.74657  0.48536  1
 S  S9  1  0.26120  0.51464  0.54433  1
 S  S10  1  0.97030  0.45567  0.71687  1
 S  S11  1  0.78319  0.07548  0.79746  1
 S  S12  1  0.47030  0.46687  0.70567  1
 S  S13  1  0.52970  0.23536  0.99657  1
 S  S14  1  0.73880  0.28313  0.25343  1
 S  S15  1  0.21681  0.01427  0.29228  1
 S  S16  1  0.23880  0.00343  0.53313  1
