CIF file written using JARVIS-Tools package.
data_W2C
_symmetry_space_group_name_H-M  'Pbcn'
_cell_length_a       4.74948
_cell_length_b       5.24514
_cell_length_c       6.11122
_cell_angle_alpha    90
_cell_angle_beta     90
_cell_angle_gamma    90

_symmetry_Int_Tables_number  60
_chemical_formula_structural  W2C
_chemical_formula_sum  W8C4
_cell_volume  152.2407207104831
_cell_formula_units_Z  4
loop_
  _symmetry_equiv_pos_site_id
 _symmetry_equiv_pos_as_xyz
 1  'x, y, z'
loop_
 _atom_site_type_symbol
 _atom_site_label
 _atom_site_symmetry_multiplicity
 _atom_site_fract_x
 _atom_site_fract_y
 _atom_site_fract_z
 _atom_site_fract_occupancy
 C  C1  1  0.50000  0.75000  0.87813  1
 C  C2  1  0.00000  0.25000  0.62187  1
 C  C3  1  0.50000  0.25000  0.12187  1
 C  C4  1  0.00000  0.75000  0.37813  1
 W  W1  1  0.24205  0.08086  0.87820  1
 W  W2  1  0.74205  0.91914  0.62180  1
 W  W3  1  0.25795  0.58086  0.62180  1
 W  W4  1  0.75795  0.41914  0.87820  1
 W  W5  1  0.24205  0.58086  0.12180  1
 W  W6  1  0.74205  0.41914  0.37820  1
 W  W7  1  0.25795  0.08086  0.37820  1
 W  W8  1  0.75795  0.91914  0.12180  1
