CIF file written using JARVIS-Tools package.
data_SnICl
_symmetry_space_group_name_H-M  'Pnma'
_cell_length_a       4.4047
_cell_length_b       8.53258
_cell_length_c       10.1869
_cell_angle_alpha    90
_cell_angle_beta     90
_cell_angle_gamma    90

_symmetry_Int_Tables_number  62
_chemical_formula_structural  SnICl
_chemical_formula_sum  Sn4I4Cl4
_cell_volume  382.8587873844877
_cell_formula_units_Z  4
loop_
  _symmetry_equiv_pos_site_id
 _symmetry_equiv_pos_as_xyz
 1  'x, y, z'
loop_
 _atom_site_type_symbol
 _atom_site_label
 _atom_site_symmetry_multiplicity
 _atom_site_fract_x
 _atom_site_fract_y
 _atom_site_fract_z
 _atom_site_fract_occupancy
 Cl  Cl1  1  0.25000  0.64580  0.05301  1
 Cl  Cl2  1  0.75000  0.85420  0.55301  1
 Cl  Cl3  1  0.25000  0.14580  0.44699  1
 Cl  Cl4  1  0.75000  0.35420  0.94699  1
 I  I1  1  0.75000  0.99188  0.16925  1
 I  I2  1  0.25000  0.50812  0.66925  1
 I  I3  1  0.75000  0.49188  0.33075  1
 I  I4  1  0.25000  0.00812  0.83075  1
 Sn  Sn1  1  0.75000  0.64744  0.85180  1
 Sn  Sn2  1  0.25000  0.35256  0.14820  1
 Sn  Sn3  1  0.75000  0.14744  0.64820  1
 Sn  Sn4  1  0.25000  0.85256  0.35180  1
