CIF file written using JARVIS-Tools package.
data_CaSnS3
_symmetry_space_group_name_H-M  'Ima2'
_cell_length_a       7.00456
_cell_length_b       6.93956
_cell_length_c       6.93931
_cell_angle_alpha    59.5735
_cell_angle_beta     59.6885
_cell_angle_gamma    59.6896

_symmetry_Int_Tables_number  46
_chemical_formula_structural  CaSnS3
_chemical_formula_sum  Ca2Sn2S6
_cell_volume  236.61957761255042
_cell_formula_units_Z  2
loop_
  _symmetry_equiv_pos_site_id
 _symmetry_equiv_pos_as_xyz
 1  'x, y, z'
loop_
 _atom_site_type_symbol
 _atom_site_label
 _atom_site_symmetry_multiplicity
 _atom_site_fract_x
 _atom_site_fract_y
 _atom_site_fract_z
 _atom_site_fract_occupancy
 Ca  Ca1  1  0.71087  0.21964  0.28033  1
 Ca  Ca2  1  0.21083  0.78036  0.71967  1
 S  S1  1  0.31366  0.38091  0.11909  1
 S  S2  1  0.81366  0.61909  0.88091  1
 S  S3  1  0.31321  0.15817  0.68850  1
 S  S4  1  0.15988  0.84183  0.31150  1
 S  S5  1  0.65988  0.81148  0.34184  1
 S  S6  1  0.81321  0.18852  0.65816  1
 Sn  Sn1  1  0.49439  -0.00000  -0.00000  1
 Sn  Sn2  1  0.99440  0.50000  0.50000  1
