CIF file written using JARVIS-Tools package.
data_SbTePd
_symmetry_space_group_name_H-M  'P2_13'
_cell_length_a       6.65362
_cell_length_b       6.65362
_cell_length_c       6.65362
_cell_angle_alpha    90
_cell_angle_beta     90
_cell_angle_gamma    90

_symmetry_Int_Tables_number  198
_chemical_formula_structural  SbTePd
_chemical_formula_sum  Sb4Te4Pd4
_cell_volume  294.5600322481999
_cell_formula_units_Z  4
loop_
  _symmetry_equiv_pos_site_id
 _symmetry_equiv_pos_as_xyz
 1  'x, y, z'
loop_
 _atom_site_type_symbol
 _atom_site_label
 _atom_site_symmetry_multiplicity
 _atom_site_fract_x
 _atom_site_fract_y
 _atom_site_fract_z
 _atom_site_fract_occupancy
 Pd  Pd1  1  0.00463  0.00463  0.00463  1
 Pd  Pd2  1  0.49537  0.99537  0.50463  1
 Pd  Pd3  1  0.50463  0.49537  0.99537  1
 Pd  Pd4  1  0.99537  0.50463  0.49537  1
 Sb  Sb1  1  0.62687  0.62687  0.62687  1
 Sb  Sb2  1  0.87313  0.37313  0.12687  1
 Sb  Sb3  1  0.12687  0.87313  0.37313  1
 Sb  Sb4  1  0.37313  0.12687  0.87313  1
 Te  Te1  1  0.37393  0.37393  0.37393  1
 Te  Te2  1  0.12607  0.62607  0.87393  1
 Te  Te3  1  0.87393  0.12607  0.62607  1
 Te  Te4  1  0.62607  0.87393  0.12607  1
