CIF file written using JARVIS-Tools package.
data_CaAlSi
_symmetry_space_group_name_H-M  'P3m1'
_cell_length_a       4.21412
_cell_length_b       4.21412
_cell_length_c       21.7425
_cell_angle_alpha    90
_cell_angle_beta     90
_cell_angle_gamma    120

_symmetry_Int_Tables_number  156
_chemical_formula_structural  CaAlSi
_chemical_formula_sum  Ca5Al5Si5
_cell_volume  334.39136684199997
_cell_formula_units_Z  5
loop_
  _symmetry_equiv_pos_site_id
 _symmetry_equiv_pos_as_xyz
 1  'x, y, z'
loop_
 _atom_site_type_symbol
 _atom_site_label
 _atom_site_symmetry_multiplicity
 _atom_site_fract_x
 _atom_site_fract_y
 _atom_site_fract_z
 _atom_site_fract_occupancy
 Al  Al1  1  0.33333  0.66667  0.88686  1
 Al  Al2  1  0.33333  0.66667  0.71469  1
 Al  Al3  1  0.66667  0.33333  0.49112  1
 Al  Al4  1  0.66667  0.33333  0.29428  1
 Al  Al5  1  0.66667  0.33333  0.11170  1
 Ca  Ca1  1  0.00000  0.00000  0.99971  1
 Ca  Ca2  1  0.00000  0.00000  0.60201  1
 Ca  Ca3  1  0.00000  0.00000  0.39831  1
 Ca  Ca4  1  0.00000  0.00000  0.20075  1
 Ca  Ca5  1  0.00000  0.00000  0.80090  1
 Si  Si1  1  0.66667  0.33333  0.69351  1
 Si  Si2  1  0.33333  0.66667  0.50933  1
 Si  Si3  1  0.33333  0.66667  0.09163  1
 Si  Si4  1  0.66667  0.33333  0.90843  1
 Si  Si5  1  0.33333  0.66667  0.30313  1
