CIF file written using JARVIS-Tools package.
data_Mg2FeWO6
_symmetry_space_group_name_H-M  'R3'
_cell_length_a       5.16324
_cell_length_b       5.16338
_cell_length_c       5.53064
_cell_angle_alpha    90.0034
_cell_angle_beta     117.825
_cell_angle_gamma    119.998

_symmetry_Int_Tables_number  146
_chemical_formula_structural  Mg2FeWO6
_chemical_formula_sum  Mg2FeWO6
_cell_volume  107.55605035780957
_cell_formula_units_Z  1
loop_
  _symmetry_equiv_pos_site_id
 _symmetry_equiv_pos_as_xyz
 1  'x, y, z'
loop_
 _atom_site_type_symbol
 _atom_site_label
 _atom_site_symmetry_multiplicity
 _atom_site_fract_x
 _atom_site_fract_y
 _atom_site_fract_z
 _atom_site_fract_occupancy
 Fe  Fe1  1  -0.00128  0.48988  0.49056  1
 Mg  Mg1  1  0.42810  0.70455  0.13463  1
 Mg  Mg2  1  0.42839  0.20469  0.63507  1
 O  O1  1  0.19292  0.90270  0.82210  1
 O  O2  1  0.91841  0.10399  0.30568  1
 O  O3  1  0.54890  0.62720  0.82212  1
 O  O4  1  0.91742  0.27123  0.82212  1
 O  O5  1  0.19971  0.79547  0.30567  1
 O  O6  1  0.50822  0.38527  0.30567  1
 W  W1  1  0.01731  -0.00082  0.01846  1
