CIF file written using JARVIS-Tools package.
data_Bi2TeSe2
_symmetry_space_group_name_H-M  'R-3m'
_cell_length_a       10.1999
_cell_length_b       10.1999
_cell_length_c       10.1999
_cell_angle_alpha    24.2771
_cell_angle_beta     24.2771
_cell_angle_gamma    24.2771

_symmetry_Int_Tables_number  166
_chemical_formula_structural  Bi2TeSe2
_chemical_formula_sum  Bi2TeSe2
_cell_volume  157.67656278313024
_cell_formula_units_Z  1
loop_
  _symmetry_equiv_pos_site_id
 _symmetry_equiv_pos_as_xyz
 1  'x, y, z'
loop_
 _atom_site_type_symbol
 _atom_site_label
 _atom_site_symmetry_multiplicity
 _atom_site_fract_x
 _atom_site_fract_y
 _atom_site_fract_z
 _atom_site_fract_occupancy
 Bi  Bi1  1  0.59469  0.59469  0.59469  1
 Bi  Bi2  1  0.40531  0.40531  0.40531  1
 Se  Se1  1  0.21022  0.21022  0.21022  1
 Se  Se2  1  0.78978  0.78978  0.78978  1
 Te  Te1  1  0.00000  0.00000  0.00000  1
