CIF file written using JARVIS-Tools package.
data_Sc6N2O5
_symmetry_space_group_name_H-M  'P1'
_cell_length_a       5.44131
_cell_length_b       5.44592
_cell_length_c       5.44924
_cell_angle_alpha    99.8152
_cell_angle_beta     99.9258
_cell_angle_gamma    99.6917

_symmetry_Int_Tables_number  1
_chemical_formula_structural  Sc6N2O5
_chemical_formula_sum  Sc6N2O5
_cell_volume  153.4451903721432
_cell_formula_units_Z  1
loop_
  _symmetry_equiv_pos_site_id
 _symmetry_equiv_pos_as_xyz
 1  'x, y, z'
loop_
 _atom_site_type_symbol
 _atom_site_label
 _atom_site_symmetry_multiplicity
 _atom_site_fract_x
 _atom_site_fract_y
 _atom_site_fract_z
 _atom_site_fract_occupancy
 N  N1  1  0.37384  0.92196  0.22352  1
 N  N2  1  0.50154  0.49938  0.50098  1
 O  O1  1  0.07699  0.77271  0.62478  1
 O  O2  1  0.77616  0.62307  0.07683  1
 O  O3  1  0.22320  0.37587  0.91995  1
 O  O4  1  0.92116  0.22576  0.37951  1
 O  O5  1  0.62742  0.08033  0.77824  1
 Sc  Sc1  1  0.15321  0.57308  0.27538  1
 Sc  Sc2  1  0.71882  0.85293  0.43213  1
 Sc  Sc3  1  0.43407  0.72644  0.85965  1
 Sc  Sc4  1  0.56290  0.27047  0.14814  1
 Sc  Sc5  1  0.27761  0.14194  0.55653  1
 Sc  Sc6  1  0.85309  0.43607  0.72435  1
