CIF file written using JARVIS-Tools package.
data_Bi2Te4Pb
_symmetry_space_group_name_H-M  'R-3m'
_cell_length_a       14.4156
_cell_length_b       14.4156
_cell_length_c       14.4156
_cell_angle_alpha    17.9459
_cell_angle_beta     17.9459
_cell_angle_gamma    17.9459

_symmetry_Int_Tables_number  166
_chemical_formula_structural  Bi2Te4Pb
_chemical_formula_sum  Bi2Te4Pb
_cell_volume  248.31632138709546
_cell_formula_units_Z  1
loop_
  _symmetry_equiv_pos_site_id
 _symmetry_equiv_pos_as_xyz
 1  'x, y, z'
loop_
 _atom_site_type_symbol
 _atom_site_label
 _atom_site_symmetry_multiplicity
 _atom_site_fract_x
 _atom_site_fract_y
 _atom_site_fract_z
 _atom_site_fract_occupancy
 Bi  Bi1  1  0.42730  0.42730  0.42730  1
 Bi  Bi2  1  0.57270  0.57270  0.57270  1
 Pb  Pb1  1  0.00000  0.00000  0.00000  1
 Te  Te1  1  0.13387  0.13387  0.13387  1
 Te  Te2  1  0.28726  0.28726  0.28726  1
 Te  Te3  1  0.71274  0.71274  0.71274  1
 Te  Te4  1  0.86613  0.86613  0.86613  1
