CIF file written using JARVIS-Tools package.
data_K3Mo2BrO7
_symmetry_space_group_name_H-M  'P6_3/mmc'
_cell_length_a       5.97809
_cell_length_b       5.97809
_cell_length_c       15.6886
_cell_angle_alpha    90
_cell_angle_beta     90
_cell_angle_gamma    120

_symmetry_Int_Tables_number  194
_chemical_formula_structural  K3Mo2BrO7
_chemical_formula_sum  K6Mo4Br2O4
_cell_volume  485.55693920801264
_cell_formula_units_Z  2
loop_
  _symmetry_equiv_pos_site_id
 _symmetry_equiv_pos_as_xyz
 1  'x, y, z'
loop_
 _atom_site_type_symbol
 _atom_site_label
 _atom_site_symmetry_multiplicity
 _atom_site_fract_x
 _atom_site_fract_y
 _atom_site_fract_z
 _atom_site_fract_occupancy
 Br  Br1  1  0.33333  0.66667  0.75000  1
 Br  Br2  1  0.66667  0.33333  0.25000  1
 K  K1  1  0.66667  0.33333  0.45801  1
 K  K2  1  0.33333  0.66667  0.54199  1
 K  K3  1  0.33333  0.66667  0.95801  1
 K  K4  1  0.66667  0.33333  0.75000  1
 K  K5  1  0.66667  0.33333  0.04199  1
 K  K6  1  0.33333  0.66667  0.25000  1
 Mo  Mo1  1  0.00000  0.00000  0.12979  1
 Mo  Mo2  1  0.00000  0.00000  0.37021  1
 Mo  Mo3  1  0.00000  0.00000  0.62979  1
 Mo  Mo4  1  0.00000  0.00000  0.87021  1
 O  O1  1  0.00000  0.00000  0.25000  1
 O  O2  1  0.15832  0.84168  0.40891  1
 O  O3  1  0.84168  0.68337  0.90891  1
 O  O4  1  0.15832  0.31663  0.40891  1
 O  O5  1  0.15832  0.84168  0.09109  1
 O  O6  1  0.84168  0.15832  0.59109  1
 O  O7  1  0.31663  0.15832  0.90891  1
 O  O8  1  0.68337  0.84168  0.09109  1
 O  O9  1  0.00000  0.00000  0.75000  1
 O  O10  1  0.15832  0.31663  0.09109  1
 O  O11  1  0.84168  0.68337  0.59109  1
 O  O12  1  0.31663  0.15832  0.59109  1
 O  O13  1  0.68337  0.84168  0.40891  1
 O  O14  1  0.84168  0.15832  0.90891  1
