CIF file written using JARVIS-Tools package.
data_HoSnPd
_symmetry_space_group_name_H-M  'Pnma'
_cell_length_a       4.62632
_cell_length_b       7.14852
_cell_length_c       7.94356
_cell_angle_alpha    90
_cell_angle_beta     90
_cell_angle_gamma    90

_symmetry_Int_Tables_number  62
_chemical_formula_structural  HoSnPd
_chemical_formula_sum  Ho4Sn4Pd4
_cell_volume  262.7041318318836
_cell_formula_units_Z  4
loop_
  _symmetry_equiv_pos_site_id
 _symmetry_equiv_pos_as_xyz
 1  'x, y, z'
loop_
 _atom_site_type_symbol
 _atom_site_label
 _atom_site_symmetry_multiplicity
 _atom_site_fract_x
 _atom_site_fract_y
 _atom_site_fract_z
 _atom_site_fract_occupancy
 Ho  Ho1  1  0.25000  0.50867  0.20641  1
 Ho  Ho2  1  0.75000  0.49133  0.79359  1
 Ho  Ho3  1  0.25000  0.00867  0.29359  1
 Ho  Ho4  1  0.75000  0.99133  0.70641  1
 Pd  Pd1  1  0.75000  0.20804  0.08318  1
 Pd  Pd2  1  0.25000  0.29196  0.58318  1
 Pd  Pd3  1  0.75000  0.70804  0.41682  1
 Pd  Pd4  1  0.25000  0.79196  0.91682  1
 Sn  Sn1  1  0.25000  0.69568  0.58790  1
 Sn  Sn2  1  0.75000  0.80432  0.08790  1
 Sn  Sn3  1  0.25000  0.19568  0.91210  1
 Sn  Sn4  1  0.75000  0.30432  0.41210  1
