CIF file written using JARVIS-Tools package.
data_ScB4Os3
_symmetry_space_group_name_H-M  'Cmcm'
_cell_length_a       2.96603
_cell_length_b       6.11575
_cell_length_c       9.90703
_cell_angle_alpha    90
_cell_angle_beta     90
_cell_angle_gamma    104.034

_symmetry_Int_Tables_number  63
_chemical_formula_structural  ScB4Os3
_chemical_formula_sum  Sc2B8Os6
_cell_volume  174.34479938745852
_cell_formula_units_Z  2
loop_
  _symmetry_equiv_pos_site_id
 _symmetry_equiv_pos_as_xyz
 1  'x, y, z'
loop_
 _atom_site_type_symbol
 _atom_site_label
 _atom_site_symmetry_multiplicity
 _atom_site_fract_x
 _atom_site_fract_y
 _atom_site_fract_z
 _atom_site_fract_occupancy
 B  B1  1  0.62820  0.25640  0.25000  1
 B  B2  1  0.37180  0.74360  0.75000  1
 B  B3  1  0.34885  0.69770  0.25000  1
 B  B4  1  0.65115  0.30230  0.75000  1
 B  B5  1  0.15730  0.31460  0.89179  1
 B  B6  1  0.84270  0.68540  0.39179  1
 B  B7  1  0.84270  0.68540  0.10821  1
 B  B8  1  0.15730  0.31460  0.60821  1
 Os  Os1  1  0.19989  0.39978  0.10795  1
 Os  Os2  1  0.01289  0.02577  0.75000  1
 Os  Os3  1  0.98711  0.97423  0.25000  1
 Os  Os4  1  0.80011  0.60022  0.89205  1
 Os  Os5  1  0.80011  0.60022  0.60795  1
 Os  Os6  1  0.19989  0.39978  0.39205  1
 Sc  Sc1  1  0.50000  0.00000  0.00000  1
 Sc  Sc2  1  0.50000  0.00000  0.50000  1
