CIF file written using JARVIS-Tools package.
data_Sc11Os4
_symmetry_space_group_name_H-M  'Fm-3m'
_cell_length_a       9.41419
_cell_length_b       9.41418
_cell_length_c       9.41419
_cell_angle_alpha    60
_cell_angle_beta     60
_cell_angle_gamma    60

_symmetry_Int_Tables_number  225
_chemical_formula_structural  Sc11Os4
_chemical_formula_sum  Sc22Os8
_cell_volume  589.9751023350882
_cell_formula_units_Z  2
loop_
  _symmetry_equiv_pos_site_id
 _symmetry_equiv_pos_as_xyz
 1  'x, y, z'
loop_
 _atom_site_type_symbol
 _atom_site_label
 _atom_site_symmetry_multiplicity
 _atom_site_fract_x
 _atom_site_fract_y
 _atom_site_fract_z
 _atom_site_fract_occupancy
 Os  Os1  1  0.00000  0.00000  0.00000  1
 Os  Os2  1  0.00000  0.00000  0.50000  1
 Os  Os3  1  0.50000  0.50000  -0.00000  1
 Os  Os4  1  -0.00000  0.50000  0.50000  1
 Os  Os5  1  -0.00000  0.50000  -0.00000  1
 Os  Os6  1  0.50000  0.00000  0.50000  1
 Os  Os7  1  0.50000  0.50000  0.50000  1
 Os  Os8  1  0.50000  0.00000  0.00000  1
 Sc  Sc1  1  0.46591  0.84470  0.84470  1
 Sc  Sc2  1  0.80082  0.19918  0.19918  1
 Sc  Sc3  1  0.15530  0.15530  0.15530  1
 Sc  Sc4  1  0.84470  0.84470  0.46591  1
 Sc  Sc5  1  0.15530  0.53409  0.15530  1
 Sc  Sc6  1  0.84470  0.46591  0.84470  1
 Sc  Sc7  1  0.53409  0.15530  0.15530  1
 Sc  Sc8  1  0.84470  0.84470  0.84470  1
 Sc  Sc9  1  0.80082  0.80082  0.19918  1
 Sc  Sc10  1  0.38246  0.38246  0.38246  1
 Sc  Sc11  1  0.80082  0.19918  0.80082  1
 Sc  Sc12  1  0.19918  0.80082  0.19918  1
 Sc  Sc13  1  0.19918  0.80082  0.80082  1
 Sc  Sc14  1  0.61754  0.61754  0.14738  1
 Sc  Sc15  1  0.14738  0.61754  0.61754  1
 Sc  Sc16  1  0.61754  0.14738  0.61754  1
 Sc  Sc17  1  0.85262  0.38246  0.38246  1
 Sc  Sc18  1  0.38246  0.85262  0.38246  1
 Sc  Sc19  1  0.38246  0.38246  0.85262  1
 Sc  Sc20  1  0.61754  0.61754  0.61754  1
 Sc  Sc21  1  0.15530  0.15530  0.53409  1
 Sc  Sc22  1  0.19918  0.19918  0.80082  1
