CIF file written using JARVIS-Tools package.
data_RbCaCO3F
_symmetry_space_group_name_H-M  'P-62m'
_cell_length_a       9.20619
_cell_length_b       9.20624
_cell_length_c       4.44382
_cell_angle_alpha    90
_cell_angle_beta     90
_cell_angle_gamma    120

_symmetry_Int_Tables_number  189
_chemical_formula_structural  RbCaCO3F
_chemical_formula_sum  Rb3Ca3C3O9F3
_cell_volume  326.1747867303829
_cell_formula_units_Z  3
loop_
  _symmetry_equiv_pos_site_id
 _symmetry_equiv_pos_as_xyz
 1  'x, y, z'
loop_
 _atom_site_type_symbol
 _atom_site_label
 _atom_site_symmetry_multiplicity
 _atom_site_fract_x
 _atom_site_fract_y
 _atom_site_fract_z
 _atom_site_fract_occupancy
 C  C1  1  0.33333  0.66667  0.50000  1
 C  C2  1  -0.00001  0.00000  0.50000  1
 C  C3  1  0.66666  0.33333  0.50000  1
 Ca  Ca1  1  0.61264  0.61265  0.50000  1
 Ca  Ca2  1  0.38735  0.00000  0.50000  1
 Ca  Ca3  1  -0.00001  0.38735  0.50000  1
 F  F1  1  0.99999  0.38521  0.00000  1
 F  F2  1  0.38521  0.00000  0.00000  1
 F  F3  1  0.61478  0.61479  0.00000  1
 O  O1  1  0.20495  0.68947  0.50000  1
 O  O2  1  0.85952  0.85952  0.50000  1
 O  O3  1  -0.00000  0.14048  0.50000  1
 O  O4  1  0.48451  0.79505  0.50000  1
 O  O5  1  0.51548  0.31053  0.50000  1
 O  O6  1  0.31052  0.51548  0.50000  1
 O  O7  1  0.68947  0.20495  0.50000  1
 O  O8  1  0.79504  0.48452  0.50000  1
 O  O9  1  0.14048  0.00000  0.50000  1
 Rb  Rb1  1  0.71849  0.00000  0.00000  1
 Rb  Rb2  1  0.28150  0.28151  0.00000  1
 Rb  Rb3  1  -0.00000  0.71850  0.00000  1
