CIF file written using JARVIS-Tools package.
data_Nb3Ga2
_symmetry_space_group_name_H-M  'P4/mbm'
_cell_length_a       6.93594
_cell_length_b       6.93594
_cell_length_c       3.53218
_cell_angle_alpha    90
_cell_angle_beta     90
_cell_angle_gamma    90

_symmetry_Int_Tables_number  127
_chemical_formula_structural  Nb3Ga2
_chemical_formula_sum  Nb6Ga4
_cell_volume  169.92390160719867
_cell_formula_units_Z  2
loop_
  _symmetry_equiv_pos_site_id
 _symmetry_equiv_pos_as_xyz
 1  'x, y, z'
loop_
 _atom_site_type_symbol
 _atom_site_label
 _atom_site_symmetry_multiplicity
 _atom_site_fract_x
 _atom_site_fract_y
 _atom_site_fract_z
 _atom_site_fract_occupancy
 Ga  Ga1  1  0.87404  0.37404  0.00000  1
 Ga  Ga2  1  0.37404  0.12596  0.00000  1
 Ga  Ga3  1  0.62596  0.87404  0.00000  1
 Ga  Ga4  1  0.12596  0.62596  0.00000  1
 Nb  Nb1  1  0.00000  0.00000  0.00000  1
 Nb  Nb2  1  0.50000  0.50000  0.00000  1
 Nb  Nb3  1  0.67567  0.17567  0.50000  1
 Nb  Nb4  1  0.17567  0.32433  0.50000  1
 Nb  Nb5  1  0.82433  0.67567  0.50000  1
 Nb  Nb6  1  0.32433  0.82433  0.50000  1
