CIF file written using JARVIS-Tools package.
data_LiMnP2O8
_symmetry_space_group_name_H-M  'P2_1/c'
_cell_length_a       4.74876
_cell_length_b       8.41259
_cell_length_c       7.70072
_cell_angle_alpha    90
_cell_angle_beta     125.415
_cell_angle_gamma    90

_symmetry_Int_Tables_number  14
_chemical_formula_structural  LiMnP2O8
_chemical_formula_sum  Li2Mn2P4O6
_cell_volume  250.7191420094053
_cell_formula_units_Z  2
loop_
  _symmetry_equiv_pos_site_id
 _symmetry_equiv_pos_as_xyz
 1  'x, y, z'
loop_
 _atom_site_type_symbol
 _atom_site_label
 _atom_site_symmetry_multiplicity
 _atom_site_fract_x
 _atom_site_fract_y
 _atom_site_fract_z
 _atom_site_fract_occupancy
 Li  Li1  1  0.00000  0.50000  0.00000  1
 Li  Li2  1  -0.00000  0.00000  0.50000  1
 Mn  Mn1  1  0.50000  0.50000  0.50000  1
 Mn  Mn2  1  0.50000  0.00000  -0.00000  1
 O  O1  1  0.79861  0.35569  0.72887  1
 O  O2  1  0.67732  0.10103  0.53975  1
 O  O3  1  0.49343  0.37317  0.28899  1
 O  O4  1  0.32268  0.89897  0.46025  1
 O  O5  1  0.50657  0.87317  0.21101  1
 O  O6  1  0.87192  0.62109  0.55130  1
 O  O7  1  0.12808  0.12109  0.94870  1
 O  O8  1  0.20139  0.85569  0.77113  1
 O  O9  1  0.79861  0.14431  0.22887  1
 O  O10  1  0.12808  0.37891  0.44870  1
 O  O11  1  0.32268  0.60103  0.96025  1
 O  O12  1  0.49343  0.12683  0.78899  1
 O  O13  1  0.87192  0.87891  0.05130  1
 O  O14  1  0.50657  0.62683  0.71101  1
 O  O15  1  0.67732  0.39897  0.03975  1
 O  O16  1  0.20139  0.64431  0.27113  1
 P  P1  1  0.22986  0.82788  0.24948  1
 P  P2  1  0.77014  0.32788  0.25052  1
 P  P3  1  0.22986  0.67212  0.74948  1
 P  P4  1  0.77014  0.17212  0.75052  1
