CIF file written using JARVIS-Tools package.
data_CaMn4O8
_symmetry_space_group_name_H-M  'R-3m'
_cell_length_a       6.43974
_cell_length_b       6.43974
_cell_length_c       6.43974
_cell_angle_alpha    52.3987
_cell_angle_beta     52.3987
_cell_angle_gamma    52.3987

_symmetry_Int_Tables_number  166
_chemical_formula_structural  CaMn4O8
_chemical_formula_sum  CaMn4O8
_cell_volume  155.12974650631455
_cell_formula_units_Z  1
loop_
  _symmetry_equiv_pos_site_id
 _symmetry_equiv_pos_as_xyz
 1  'x, y, z'
loop_
 _atom_site_type_symbol
 _atom_site_label
 _atom_site_symmetry_multiplicity
 _atom_site_fract_x
 _atom_site_fract_y
 _atom_site_fract_z
 _atom_site_fract_occupancy
 Ca  Ca1  1  0.50000  0.50000  0.50000  1
 Mn  Mn1  1  0.50000  1.00000  0.50000  1
 Mn  Mn2  1  1.00000  0.50000  0.50000  1
 Mn  Mn3  1  0.50000  0.50000  0.00000  1
 Mn  Mn4  1  0.00000  0.00000  0.00000  1
 O  O1  1  0.76969  0.27343  0.76969  1
 O  O2  1  0.23031  0.23031  0.72657  1
 O  O3  1  0.23031  0.72657  0.23031  1
 O  O4  1  0.72657  0.23031  0.23031  1
 O  O5  1  0.27370  0.27370  0.27370  1
 O  O6  1  0.72630  0.72630  0.72630  1
 O  O7  1  0.27343  0.76969  0.76969  1
 O  O8  1  0.76969  0.76969  0.27343  1
