CIF file written using JARVIS-Tools package.
data_KNiAsO4
_symmetry_space_group_name_H-M  'R-3'
_cell_length_a       10.0246
_cell_length_b       10.0246
_cell_length_c       10.0246
_cell_angle_alpha    29.0063
_cell_angle_beta     29.0063
_cell_angle_gamma    29.0063

_symmetry_Int_Tables_number  148
_chemical_formula_structural  KNiAsO4
_chemical_formula_sum  K2Ni2As2O8
_cell_volume  209.51649550541697
_cell_formula_units_Z  2
loop_
  _symmetry_equiv_pos_site_id
 _symmetry_equiv_pos_as_xyz
 1  'x, y, z'
loop_
 _atom_site_type_symbol
 _atom_site_label
 _atom_site_symmetry_multiplicity
 _atom_site_fract_x
 _atom_site_fract_y
 _atom_site_fract_z
 _atom_site_fract_occupancy
 As  As1  1  0.56044  0.56044  0.56044  1
 As  As2  1  0.43956  0.43956  0.43956  1
 K  K1  1  0.71125  0.71125  0.71125  1
 K  K2  1  0.28875  0.28875  0.28875  1
 Ni  Ni1  1  0.16539  0.16539  0.16539  1
 Ni  Ni2  1  0.83461  0.83461  0.83461  1
 O  O1  1  0.87616  0.53678  0.21218  1
 O  O2  1  0.21218  0.87616  0.53678  1
 O  O3  1  0.38043  0.38043  0.38043  1
 O  O4  1  0.46322  0.78782  0.12384  1
 O  O5  1  0.12384  0.46322  0.78782  1
 O  O6  1  0.53678  0.21218  0.87616  1
 O  O7  1  0.78782  0.12384  0.46322  1
 O  O8  1  0.61957  0.61957  0.61957  1
