CIF file written using JARVIS-Tools package.
data_AgBiSe2
_symmetry_space_group_name_H-M  'R-3m'
_cell_length_a       4.19287
_cell_length_b       4.19287
_cell_length_c       19.7714
_cell_angle_alpha    90
_cell_angle_beta     90
_cell_angle_gamma    120

_symmetry_Int_Tables_number  166
_chemical_formula_structural  AgBiSe2
_chemical_formula_sum  Ag3Bi3Se6
_cell_volume  301.0177430764872
_cell_formula_units_Z  3
loop_
  _symmetry_equiv_pos_site_id
 _symmetry_equiv_pos_as_xyz
 1  'x, y, z'
loop_
 _atom_site_type_symbol
 _atom_site_label
 _atom_site_symmetry_multiplicity
 _atom_site_fract_x
 _atom_site_fract_y
 _atom_site_fract_z
 _atom_site_fract_occupancy
 Ag  Ag1  1  0.33333  0.66667  0.33331  1
 Ag  Ag2  1  0.66667  0.33333  0.66669  1
 Ag  Ag3  1  0.00000  0.00000  0.00000  1
 Bi  Bi1  1  0.33333  0.66667  0.83335  1
 Bi  Bi2  1  0.00000  0.00000  0.50000  1
 Bi  Bi3  1  0.66667  0.33333  0.16665  1
 Se  Se1  1  0.66667  0.33333  0.41163  1
 Se  Se2  1  0.33333  0.66667  0.58837  1
 Se  Se3  1  0.66667  0.33333  0.92171  1
 Se  Se4  1  0.33333  0.66667  0.07829  1
 Se  Se5  1  0.00000  0.00000  0.74498  1
 Se  Se6  1  0.00000  0.00000  0.25502  1
