CIF file written using JARVIS-Tools package.
data_K3LiIrO4
_symmetry_space_group_name_H-M  'C2/c'
_cell_length_a       5.8715
_cell_length_b       7.22542
_cell_length_c       7.22542
_cell_angle_alpha    84.0766
_cell_angle_beta     79.2846
_cell_angle_gamma    79.2847

_symmetry_Int_Tables_number  15
_chemical_formula_structural  K3LiIrO4
_chemical_formula_sum  K6Li2Ir2O8
_cell_volume  295.1858237762283
_cell_formula_units_Z  2
loop_
  _symmetry_equiv_pos_site_id
 _symmetry_equiv_pos_as_xyz
 1  'x, y, z'
loop_
 _atom_site_type_symbol
 _atom_site_label
 _atom_site_symmetry_multiplicity
 _atom_site_fract_x
 _atom_site_fract_y
 _atom_site_fract_z
 _atom_site_fract_occupancy
 Ir  Ir1  1  0.50000  -0.00000  0.50000  1
 Ir  Ir2  1  -0.00000  0.50000  0.00000  1
 K  K1  1  0.25000  0.59587  0.40413  1
 K  K2  1  0.02256  0.06595  0.24397  1
 K  K3  1  0.97744  0.93405  0.75603  1
 K  K4  1  0.47744  0.75603  0.93405  1
 K  K5  1  0.75000  0.40413  0.59587  1
 K  K6  1  0.52256  0.24397  0.06595  1
 Li  Li1  1  0.25000  0.26944  0.73056  1
 Li  Li2  1  0.75000  0.73056  0.26944  1
 O  O1  1  0.73917  0.48112  0.20653  1
 O  O2  1  0.76083  0.79347  0.51888  1
 O  O3  1  0.52971  0.08808  0.73690  1
 O  O4  1  0.26083  0.51888  0.79347  1
 O  O5  1  0.02971  0.73690  0.08808  1
 O  O6  1  0.47029  0.91192  0.26310  1
 O  O7  1  0.97029  0.26310  0.91192  1
 O  O8  1  0.23917  0.20653  0.48112  1
