CIF file written using JARVIS-Tools package.
data_CaGa3Ni2
_symmetry_space_group_name_H-M  'Cmcm'
_cell_length_a       5.18241
_cell_length_b       6.23431
_cell_length_c       6.23431
_cell_angle_alpha    101.912
_cell_angle_beta     90
_cell_angle_gamma    90

_symmetry_Int_Tables_number  63
_chemical_formula_structural  CaGa3Ni2
_chemical_formula_sum  Ca2Ga6Ni4
_cell_volume  197.08618287577482
_cell_formula_units_Z  2
loop_
  _symmetry_equiv_pos_site_id
 _symmetry_equiv_pos_as_xyz
 1  'x, y, z'
loop_
 _atom_site_type_symbol
 _atom_site_label
 _atom_site_symmetry_multiplicity
 _atom_site_fract_x
 _atom_site_fract_y
 _atom_site_fract_z
 _atom_site_fract_occupancy
 Ca  Ca1  1  0.25000  0.34502  0.34502  1
 Ca  Ca2  1  0.75000  0.65498  0.65498  1
 Ga  Ga1  1  0.75000  0.46439  0.09660  1
 Ga  Ga2  1  0.75000  0.09660  0.46439  1
 Ga  Ga3  1  0.25000  0.53561  0.90340  1
 Ga  Ga4  1  0.75000  0.04656  0.04656  1
 Ga  Ga5  1  0.25000  0.95344  0.95344  1
 Ga  Ga6  1  0.25000  0.90340  0.53561  1
 Ni  Ni1  1  0.50000  0.78780  0.21220  1
 Ni  Ni2  1  0.00000  0.78780  0.21220  1
 Ni  Ni3  1  0.00000  0.21220  0.78780  1
 Ni  Ni4  1  0.50000  0.21220  0.78780  1
