CIF file written using JARVIS-Tools package.
data_CaMg2Ni9
_symmetry_space_group_name_H-M  'R-3m'
_cell_length_a       8.32885
_cell_length_b       8.32885
_cell_length_c       8.32885
_cell_angle_alpha    33.8749
_cell_angle_beta     33.8749
_cell_angle_gamma    33.8749

_symmetry_Int_Tables_number  166
_chemical_formula_structural  CaMg2Ni9
_chemical_formula_sum  CaMg2Ni9
_cell_volume  159.96693096992084
_cell_formula_units_Z  1
loop_
  _symmetry_equiv_pos_site_id
 _symmetry_equiv_pos_as_xyz
 1  'x, y, z'
loop_
 _atom_site_type_symbol
 _atom_site_label
 _atom_site_symmetry_multiplicity
 _atom_site_fract_x
 _atom_site_fract_y
 _atom_site_fract_z
 _atom_site_fract_occupancy
 Ca  Ca1  1  0.00000  0.00000  0.00000  1
 Mg  Mg1  1  0.85706  0.85706  0.85706  1
 Mg  Mg2  1  0.14294  0.14294  0.14294  1
 Ni  Ni1  1  0.58658  0.08170  0.58658  1
 Ni  Ni2  1  0.58658  0.58658  0.08170  1
 Ni  Ni3  1  0.08170  0.58658  0.58658  1
 Ni  Ni4  1  0.91830  0.41342  0.41342  1
 Ni  Ni5  1  0.41342  0.91830  0.41342  1
 Ni  Ni6  1  0.41342  0.41342  0.91830  1
 Ni  Ni7  1  0.50000  0.50000  0.50000  1
 Ni  Ni8  1  0.66653  0.66653  0.66653  1
 Ni  Ni9  1  0.33347  0.33347  0.33347  1
