CIF file written using JARVIS-Tools package.
data_Ca2CrN3
_symmetry_space_group_name_H-M  'Amm2'
_cell_length_a       4.96725
_cell_length_b       6.5846
_cell_length_c       6.5846
_cell_angle_alpha    105.028
_cell_angle_beta     90
_cell_angle_gamma    90

_symmetry_Int_Tables_number  38
_chemical_formula_structural  Ca2CrN3
_chemical_formula_sum  Ca4Cr2N6
_cell_volume  207.998363106366
_cell_formula_units_Z  2
loop_
  _symmetry_equiv_pos_site_id
 _symmetry_equiv_pos_as_xyz
 1  'x, y, z'
loop_
 _atom_site_type_symbol
 _atom_site_label
 _atom_site_symmetry_multiplicity
 _atom_site_fract_x
 _atom_site_fract_y
 _atom_site_fract_z
 _atom_site_fract_occupancy
 Ca  Ca1  1  0.75000  0.11214  0.88786  1
 Ca  Ca2  1  0.75000  0.19579  0.39519  1
 Ca  Ca3  1  0.25000  0.88978  0.11022  1
 Ca  Ca4  1  0.75000  0.60481  0.80421  1
 Cr  Cr1  1  0.75000  0.70247  0.29753  1
 Cr  Cr2  1  0.25000  0.28387  0.71613  1
 N  N1  1  0.75000  0.44120  0.18618  1
 N  N2  1  0.25000  0.11996  0.88004  1
 N  N3  1  0.75000  0.87551  0.12449  1
 N  N4  1  0.25000  0.17542  0.44971  1
 N  N5  1  0.25000  0.55029  0.82458  1
 N  N6  1  0.75000  0.81382  0.55880  1
