CIF file written using JARVIS-Tools package.
data_LiMnP2O8
_symmetry_space_group_name_H-M  'C2/c'
_cell_length_a       4.57855
_cell_length_b       4.93415
_cell_length_c       13.3159
_cell_angle_alpha    95.2964
_cell_angle_beta     90
_cell_angle_gamma    62.3566

_symmetry_Int_Tables_number  15
_chemical_formula_structural  LiMnP2O8
_chemical_formula_sum  Li2Mn2P4O6
_cell_volume  265.0331550360736
_cell_formula_units_Z  2
loop_
  _symmetry_equiv_pos_site_id
 _symmetry_equiv_pos_as_xyz
 1  'x, y, z'
loop_
 _atom_site_type_symbol
 _atom_site_label
 _atom_site_symmetry_multiplicity
 _atom_site_fract_x
 _atom_site_fract_y
 _atom_site_fract_z
 _atom_site_fract_occupancy
 Li  Li1  1  0.94385  -0.00000  0.75000  1
 Li  Li2  1  0.05615  -0.00000  0.25000  1
 Mn  Mn1  1  0.00000  0.00000  0.00000  1
 Mn  Mn2  1  0.00000  -0.00000  0.50000  1
 O  O1  1  0.86502  0.88194  0.11968  1
 O  O2  1  0.78537  0.69337  0.71465  1
 O  O3  1  0.77942  0.78420  0.52907  1
 O  O4  1  0.21463  0.30663  0.28535  1
 O  O5  1  0.69460  0.34376  0.58012  1
 O  O6  1  0.43638  0.78420  0.02907  1
 O  O7  1  0.96164  0.34376  0.08012  1
 O  O8  1  0.25304  0.88194  0.61968  1
 O  O9  1  0.74696  0.11806  0.38032  1
 O  O10  1  0.56362  0.21580  0.97093  1
 O  O11  1  0.52126  0.69337  0.21465  1
 O  O12  1  0.30540  0.65624  0.41988  1
 O  O13  1  0.03836  0.65624  0.91988  1
 O  O14  1  0.22058  0.21580  0.47093  1
 O  O15  1  0.47874  0.30663  0.78535  1
 O  O16  1  0.13498  0.11806  0.88032  1
 P  P1  1  0.31480  0.32274  0.88482  1
 P  P2  1  0.36247  0.32274  0.38482  1
 P  P3  1  0.63753  0.67726  0.61518  1
 P  P4  1  0.68520  0.67726  0.11518  1
