CIF file written using JARVIS-Tools package.
data_CuSe2
_symmetry_space_group_name_H-M  'Pa-3'
_cell_length_a       6.181
_cell_length_b       6.181
_cell_length_c       6.181
_cell_angle_alpha    90
_cell_angle_beta     90
_cell_angle_gamma    90

_symmetry_Int_Tables_number  205
_chemical_formula_structural  CuSe2
_chemical_formula_sum  Cu4Se8
_cell_volume  236.14343361885088
_cell_formula_units_Z  4
loop_
  _symmetry_equiv_pos_site_id
 _symmetry_equiv_pos_as_xyz
 1  'x, y, z'
loop_
 _atom_site_type_symbol
 _atom_site_label
 _atom_site_symmetry_multiplicity
 _atom_site_fract_x
 _atom_site_fract_y
 _atom_site_fract_z
 _atom_site_fract_occupancy
 Cu  Cu1  1  0.00000  0.00000  0.00000  1
 Cu  Cu2  1  0.50000  0.00000  0.50000  1
 Cu  Cu3  1  0.50000  0.50000  0.00000  1
 Cu  Cu4  1  0.00000  0.50000  0.50000  1
 Se  Se1  1  0.38899  0.38899  0.38899  1
 Se  Se2  1  0.11101  0.61101  0.88899  1
 Se  Se3  1  0.88899  0.11101  0.61101  1
 Se  Se4  1  0.61101  0.88899  0.11101  1
 Se  Se5  1  0.61101  0.61101  0.61101  1
 Se  Se6  1  0.88899  0.38899  0.11101  1
 Se  Se7  1  0.11101  0.88899  0.38899  1
 Se  Se8  1  0.38899  0.11101  0.88899  1
