CIF file written using JARVIS-Tools package.
data_Sm2Zn6Ge3
_symmetry_space_group_name_H-M  'P-62m'
_cell_length_a       7.64354
_cell_length_b       7.64354
_cell_length_c       4.06067
_cell_angle_alpha    90
_cell_angle_beta     90
_cell_angle_gamma    120

_symmetry_Int_Tables_number  189
_chemical_formula_structural  Sm2Zn6Ge3
_chemical_formula_sum  Sm2Zn6Ge3
_cell_volume  205.45485408898168
_cell_formula_units_Z  1
loop_
  _symmetry_equiv_pos_site_id
 _symmetry_equiv_pos_as_xyz
 1  'x, y, z'
loop_
 _atom_site_type_symbol
 _atom_site_label
 _atom_site_symmetry_multiplicity
 _atom_site_fract_x
 _atom_site_fract_y
 _atom_site_fract_z
 _atom_site_fract_occupancy
 Ge  Ge1  1  -0.00000  0.61235  0.50000  1
 Ge  Ge2  1  0.38765  0.38765  0.50000  1
 Ge  Ge3  1  0.61235  -0.00000  0.50000  1
 Sm  Sm1  1  0.66667  0.33333  0.00000  1
 Sm  Sm2  1  0.33333  0.66667  0.00000  1
 Zn  Zn1  1  -0.00000  0.28509  0.50000  1
 Zn  Zn2  1  0.28509  -0.00000  0.50000  1
 Zn  Zn3  1  -0.00000  0.80989  0.00000  1
 Zn  Zn4  1  0.19011  0.19011  0.00000  1
 Zn  Zn5  1  0.71491  0.71491  0.50000  1
 Zn  Zn6  1  0.80989  -0.00000  0.00000  1
