CIF file written using JARVIS-Tools package.
data_PrB3O6
_symmetry_space_group_name_H-M  'C2/c'
_cell_length_a       6.40862
_cell_length_b       6.40862
_cell_length_c       6.40961
_cell_angle_alpha    62.7812
_cell_angle_beta     62.7812
_cell_angle_gamma    79.3299

_symmetry_Int_Tables_number  15
_chemical_formula_structural  PrB3O6
_chemical_formula_sum  Pr2B6O2
_cell_volume  208.07720924756714
_cell_formula_units_Z  2
loop_
  _symmetry_equiv_pos_site_id
 _symmetry_equiv_pos_as_xyz
 1  'x, y, z'
loop_
 _atom_site_type_symbol
 _atom_site_label
 _atom_site_symmetry_multiplicity
 _atom_site_fract_x
 _atom_site_fract_y
 _atom_site_fract_z
 _atom_site_fract_occupancy
 B  B1  1  0.15757  0.29231  0.91592  1
 B  B2  1  0.70769  0.84243  0.58408  1
 B  B3  1  0.27906  0.72094  0.75000  1
 B  B4  1  0.29231  0.15757  0.41592  1
 B  B5  1  0.84243  0.70769  0.08408  1
 B  B6  1  0.72094  0.27906  0.25000  1
 O  O1  1  0.11287  0.28706  0.49777  1
 O  O2  1  0.88713  0.71294  0.50223  1
 O  O3  1  0.08559  0.70994  0.99172  1
 O  O4  1  0.29006  0.91441  0.50828  1
 O  O5  1  0.91441  0.29006  0.00828  1
 O  O6  1  0.70994  0.08559  0.49172  1
 O  O7  1  0.50603  0.28183  0.21317  1
 O  O8  1  0.28183  0.50603  0.71317  1
 O  O9  1  0.71817  0.49397  0.28683  1
 O  O10  1  0.28706  0.11287  0.99777  1
 O  O11  1  0.71294  0.88713  0.00223  1
 O  O12  1  0.49397  0.71817  0.78683  1
 Pr  Pr1  1  0.30206  0.69794  0.25000  1
 Pr  Pr2  1  0.69794  0.30206  0.75000  1
