CIF file written using JARVIS-Tools package.
data_SnO2
_symmetry_space_group_name_H-M  'R-3m'
_cell_length_a       5.66956
_cell_length_b       6.52258
_cell_length_c       6.52258
_cell_angle_alpha    60
_cell_angle_beta     54.8844
_cell_angle_gamma    54.8844

_symmetry_Int_Tables_number  166
_chemical_formula_structural  SnO2
_chemical_formula_sum  Sn4O8
_cell_volume  156.15414503992906
_cell_formula_units_Z  4
loop_
  _symmetry_equiv_pos_site_id
 _symmetry_equiv_pos_as_xyz
 1  'x, y, z'
loop_
 _atom_site_type_symbol
 _atom_site_label
 _atom_site_symmetry_multiplicity
 _atom_site_fract_x
 _atom_site_fract_y
 _atom_site_fract_z
 _atom_site_fract_occupancy
 O  O1  1  0.36262  0.37913  0.37913  1
 O  O2  1  0.36262  0.37913  0.87912  1
 O  O3  1  0.36262  0.87912  0.37913  1
 O  O4  1  0.82611  0.39130  0.39130  1
 O  O5  1  0.36264  0.87912  0.87912  1
 O  O6  1  0.82609  0.39130  0.89131  1
 O  O7  1  0.82609  0.89131  0.39130  1
 O  O8  1  0.82609  0.89131  0.89131  1
 Sn  Sn1  1  0.59434  0.13522  0.13522  1
 Sn  Sn2  1  0.59437  0.13521  0.63521  1
 Sn  Sn3  1  0.59437  0.63521  0.13521  1
 Sn  Sn4  1  0.59437  0.63521  0.63521  1
