CIF file written using JARVIS-Tools package.
data_Te2MoWSe2
_symmetry_space_group_name_H-M  'P3m1'
_cell_length_a       3.45157
_cell_length_b       3.45158
_cell_length_c       38.8031
_cell_angle_alpha    90.0009
_cell_angle_beta     90
_cell_angle_gamma    120

_symmetry_Int_Tables_number  156
_chemical_formula_structural  Te2MoWSe2
_chemical_formula_sum  Te4Mo2W2Se4
_cell_volume  400.3424107208915
_cell_formula_units_Z  2
loop_
  _symmetry_equiv_pos_site_id
 _symmetry_equiv_pos_as_xyz
 1  'x, y, z'
loop_
 _atom_site_type_symbol
 _atom_site_label
 _atom_site_symmetry_multiplicity
 _atom_site_fract_x
 _atom_site_fract_y
 _atom_site_fract_z
 _atom_site_fract_occupancy
 Mo  Mo1  1  0.33331  0.66662  0.09392  1
 Mo  Mo2  1  0.66668  0.33336  0.28188  1
 Se  Se1  1  0.33335  0.66670  0.32383  1
 Se  Se2  1  0.33336  0.66673  0.69951  1
 Se  Se3  1  0.33335  0.66670  0.23970  1
 Se  Se4  1  0.33336  0.66673  0.61525  1
 Te  Te1  1  0.66664  0.33328  0.04636  1
 Te  Te2  1  0.66664  0.33328  0.42153  1
 Te  Te3  1  0.66664  0.33329  0.14179  1
 Te  Te4  1  0.66665  0.33329  0.51771  1
 W  W1  1  0.33331  0.66662  0.46971  1
 W  W2  1  0.66670  0.33340  0.65756  1
