CIF file written using JARVIS-Tools package.
data_Mo2O5
_symmetry_space_group_name_H-M  'Cmmm'
_cell_length_a       3.73999
_cell_length_b       3.79932
_cell_length_c       13.0433
_cell_angle_alpha    90.001
_cell_angle_beta     89.9989
_cell_angle_gamma    89.9994

_symmetry_Int_Tables_number  65
_chemical_formula_structural  Mo2O5
_chemical_formula_sum  Mo4O0
_cell_volume  185.33801083739118
_cell_formula_units_Z  2
loop_
  _symmetry_equiv_pos_site_id
 _symmetry_equiv_pos_as_xyz
 1  'x, y, z'
loop_
 _atom_site_type_symbol
 _atom_site_label
 _atom_site_symmetry_multiplicity
 _atom_site_fract_x
 _atom_site_fract_y
 _atom_site_fract_z
 _atom_site_fract_occupancy
 Mo  Mo1  1  0.01857  0.99994  0.14300  1
 Mo  Mo2  1  0.51857  0.00005  0.35700  1
 Mo  Mo3  1  0.51858  0.00005  0.64300  1
 Mo  Mo4  1  0.01857  0.99995  0.85700  1
 O  O1  1  0.51857  -0.00000  0.18975  1
 O  O2  1  0.01857  0.00000  0.31025  1
 O  O3  1  0.01858  0.00000  0.68975  1
 O  O4  1  0.51857  -0.00000  0.81025  1
 O  O5  1  0.01857  0.49996  0.85540  1
 O  O6  1  0.51858  0.50004  0.64459  1
 O  O7  1  0.51856  0.50004  0.35540  1
 O  O8  1  0.51857  0.00005  0.50000  1
 O  O9  1  0.01857  0.99995  -0.00000  1
 O  O10  1  0.01858  0.49996  0.14459  1
