CIF file written using JARVIS-Tools package.
data_HfSiPd
_symmetry_space_group_name_H-M  'Pnma'
_cell_length_a       3.89389
_cell_length_b       6.60627
_cell_length_c       7.61273
_cell_angle_alpha    90
_cell_angle_beta     90
_cell_angle_gamma    90

_symmetry_Int_Tables_number  62
_chemical_formula_structural  HfSiPd
_chemical_formula_sum  Hf4Si4Pd4
_cell_volume  195.8305999719287
_cell_formula_units_Z  4
loop_
  _symmetry_equiv_pos_site_id
 _symmetry_equiv_pos_as_xyz
 1  'x, y, z'
loop_
 _atom_site_type_symbol
 _atom_site_label
 _atom_site_symmetry_multiplicity
 _atom_site_fract_x
 _atom_site_fract_y
 _atom_site_fract_z
 _atom_site_fract_occupancy
 Hf  Hf1  1  0.25000  0.52823  0.67962  1
 Hf  Hf2  1  0.75000  0.47177  0.32038  1
 Hf  Hf3  1  0.25000  0.02823  0.82038  1
 Hf  Hf4  1  0.75000  0.97177  0.17962  1
 Pd  Pd1  1  0.75000  0.85673  0.56251  1
 Pd  Pd2  1  0.25000  0.14327  0.43749  1
 Pd  Pd3  1  0.75000  0.35673  0.93749  1
 Pd  Pd4  1  0.25000  0.64327  0.06251  1
 Si  Si1  1  0.25000  0.25708  0.12392  1
 Si  Si2  1  0.75000  0.74292  0.87608  1
 Si  Si3  1  0.25000  0.75708  0.37608  1
 Si  Si4  1  0.75000  0.24292  0.62392  1
