CIF file written using JARVIS-Tools package.
data_Li10Zn4O9
_symmetry_space_group_name_H-M  'P4_2/nmc'
_cell_length_a       9.74506
_cell_length_b       9.74506
_cell_length_c       4.6495
_cell_angle_alpha    90
_cell_angle_beta     90
_cell_angle_gamma    90

_symmetry_Int_Tables_number  137
_chemical_formula_structural  Li10Zn4O9
_chemical_formula_sum  Li20Zn8O8
_cell_volume  441.5450218701199
_cell_formula_units_Z  2
loop_
  _symmetry_equiv_pos_site_id
 _symmetry_equiv_pos_as_xyz
 1  'x, y, z'
loop_
 _atom_site_type_symbol
 _atom_site_label
 _atom_site_symmetry_multiplicity
 _atom_site_fract_x
 _atom_site_fract_y
 _atom_site_fract_z
 _atom_site_fract_occupancy
 Li  Li1  1  0.14372  0.68744  0.78737  1
 Li  Li2  1  0.31256  0.14372  0.21263  1
 Li  Li3  1  0.85628  0.31256  0.78737  1
 Li  Li4  1  0.81256  0.64372  0.28737  1
 Li  Li5  1  0.18744  0.35628  0.28737  1
 Li  Li6  1  0.64372  0.81256  0.71263  1
 Li  Li7  1  0.35628  0.18744  0.71263  1
 Li  Li8  1  0.31256  0.85628  0.21263  1
 Li  Li9  1  0.68744  0.85628  0.21263  1
 Li  Li10  1  0.85628  0.68744  0.78737  1
 Li  Li11  1  0.68744  0.14372  0.21263  1
 Li  Li12  1  0.14372  0.31256  0.78737  1
 Li  Li13  1  0.18744  0.64372  0.28737  1
 Li  Li14  1  0.50000  0.00000  0.67623  1
 Li  Li15  1  0.50000  0.00000  0.17623  1
 Li  Li16  1  0.00000  0.50000  0.82377  1
 Li  Li17  1  0.00000  0.50000  0.32377  1
 Li  Li18  1  0.64372  0.18744  0.71263  1
 Li  Li19  1  0.35628  0.81256  0.71263  1
 Li  Li20  1  0.81256  0.35628  0.28737  1
 O  O1  1  0.00000  0.65668  0.06429  1
 O  O2  1  0.84332  0.50000  0.56429  1
 O  O3  1  0.50000  0.50000  0.50000  1
 O  O4  1  0.00000  0.00000  0.00000  1
 O  O5  1  0.67459  0.32541  0.00000  1
 O  O6  1  0.82541  0.17459  0.50000  1
 O  O7  1  0.17459  0.17459  0.50000  1
 O  O8  1  0.32541  0.67459  0.00000  1
 O  O9  1  0.67459  0.67459  0.00000  1
 O  O10  1  0.00000  0.34332  0.06429  1
 O  O11  1  0.82541  0.82541  0.50000  1
 O  O12  1  0.50000  0.15668  0.43571  1
 O  O13  1  0.32541  0.32541  0.00000  1
 O  O14  1  0.34332  0.00000  0.93571  1
 O  O15  1  0.50000  0.84332  0.43571  1
 O  O16  1  0.17459  0.82541  0.50000  1
 O  O17  1  0.15668  0.50000  0.56429  1
 O  O18  1  0.65668  0.00000  0.93571  1
 Zn  Zn1  1  0.50000  0.33717  0.23239  1
 Zn  Zn2  1  0.16283  0.00000  0.73239  1
 Zn  Zn3  1  0.83717  0.00000  0.73239  1
 Zn  Zn4  1  0.50000  0.66283  0.23239  1
 Zn  Zn5  1  0.00000  0.16283  0.26761  1
 Zn  Zn6  1  0.00000  0.83717  0.26761  1
 Zn  Zn7  1  0.66283  0.50000  0.76761  1
 Zn  Zn8  1  0.33717  0.50000  0.76761  1
