CIF file written using JARVIS-Tools package.
data_MgMnO2
_symmetry_space_group_name_H-M  'P-1'
_cell_length_a       3.18504
_cell_length_b       8.39098
_cell_length_c       8.30082
_cell_angle_alpha    90.2751
_cell_angle_beta     84.9725
_cell_angle_gamma    79.6821

_symmetry_Int_Tables_number  2
_chemical_formula_structural  MgMnO2
_chemical_formula_sum  Mg4Mn4O8
_cell_volume  217.36931692344027
_cell_formula_units_Z  4
loop_
  _symmetry_equiv_pos_site_id
 _symmetry_equiv_pos_as_xyz
 1  'x, y, z'
loop_
 _atom_site_type_symbol
 _atom_site_label
 _atom_site_symmetry_multiplicity
 _atom_site_fract_x
 _atom_site_fract_y
 _atom_site_fract_z
 _atom_site_fract_occupancy
 Mg  Mg1  1  0.70674  0.93605  0.73268  1
 Mg  Mg2  1  0.31753  0.08403  0.23912  1
 Mg  Mg3  1  0.13000  0.28214  0.87079  1
 Mg  Mg4  1  0.89423  0.73796  0.10100  1
 Mn  Mn1  1  0.15921  0.77646  0.40691  1
 Mn  Mn2  1  0.49259  0.62379  0.75502  1
 Mn  Mn3  1  0.53163  0.39630  0.21678  1
 Mn  Mn4  1  0.86500  0.24358  0.56489  1
 O  O1  1  0.40740  0.24705  0.41178  1
 O  O2  1  0.42061  0.63468  0.19989  1
 O  O3  1  0.60363  0.38541  0.77190  1
 O  O4  1  0.61682  0.77304  0.56002  1
 O  O5  1  0.88697  0.93961  0.23424  1
 O  O6  1  0.90983  0.74545  0.86772  1
 O  O7  1  0.13730  0.08048  0.73756  1
 O  O8  1  0.11440  0.27463  0.10408  1
