CIF file written using JARVIS-Tools package.
data_NaLiCO3
_symmetry_space_group_name_H-M  'P-6'
_cell_length_a       8.27299
_cell_length_b       8.27299
_cell_length_c       3.30363
_cell_angle_alpha    90
_cell_angle_beta     90
_cell_angle_gamma    120

_symmetry_Int_Tables_number  174
_chemical_formula_structural  NaLiCO3
_chemical_formula_sum  Na3Li3C3O9
_cell_volume  195.8155722298542
_cell_formula_units_Z  3
loop_
  _symmetry_equiv_pos_site_id
 _symmetry_equiv_pos_as_xyz
 1  'x, y, z'
loop_
 _atom_site_type_symbol
 _atom_site_label
 _atom_site_symmetry_multiplicity
 _atom_site_fract_x
 _atom_site_fract_y
 _atom_site_fract_z
 _atom_site_fract_occupancy
 C  C1  1  0.00000  0.00000  0.00000  1
 C  C2  1  0.33333  0.66667  0.50000  1
 C  C3  1  0.66667  0.33333  0.00000  1
 Li  Li1  1  0.64110  0.70004  0.00000  1
 Li  Li2  1  0.29996  0.94106  0.00000  1
 Li  Li3  1  0.05894  0.35890  0.00000  1
 Na  Na1  1  0.96455  0.63515  0.50000  1
 Na  Na2  1  0.67060  0.03545  0.50000  1
 Na  Na3  1  0.36485  0.32940  0.50000  1
 O  O1  1  0.61476  0.45751  0.00000  1
 O  O2  1  0.84275  0.38524  0.00000  1
 O  O3  1  0.49870  0.68563  0.50000  1
 O  O4  1  0.54249  0.15725  0.00000  1
 O  O5  1  0.03614  0.86441  0.00000  1
 O  O6  1  0.31437  0.81307  0.50000  1
 O  O7  1  0.18693  0.50130  0.50000  1
 O  O8  1  0.13559  0.17172  0.00000  1
 O  O9  1  0.82828  0.96386  0.00000  1
