CIF file written using JARVIS-Tools package.
data_Nd2O3
_symmetry_space_group_name_H-M  'Ia-3'
_cell_length_a       9.66943
_cell_length_b       9.66943
_cell_length_c       9.66943
_cell_angle_alpha    109.471
_cell_angle_beta     109.471
_cell_angle_gamma    109.471

_symmetry_Int_Tables_number  206
_chemical_formula_structural  Nd2O3
_chemical_formula_sum  Nd6O24
_cell_volume  695.9547222239039
_cell_formula_units_Z  8
loop_
  _symmetry_equiv_pos_site_id
 _symmetry_equiv_pos_as_xyz
 1  'x, y, z'
loop_
 _atom_site_type_symbol
 _atom_site_label
 _atom_site_symmetry_multiplicity
 _atom_site_fract_x
 _atom_site_fract_y
 _atom_site_fract_z
 _atom_site_fract_occupancy
 Nd  Nd1  1  0.50000  0.50000  0.50000  1
 Nd  Nd2  1  0.00000  0.00000  0.50000  1
 Nd  Nd3  1  0.96954  0.25000  0.21954  1
 Nd  Nd4  1  -0.00000  0.50000  0.00000  1
 Nd  Nd5  1  0.25000  0.21954  0.96954  1
 Nd  Nd6  1  0.28046  0.53046  0.75000  1
 Nd  Nd7  1  0.53046  0.75000  0.28046  1
 Nd  Nd8  1  0.21954  0.96954  0.25000  1
 Nd  Nd9  1  0.50000  0.00000  0.00000  1
 Nd  Nd10  1  0.75000  0.28046  0.53046  1
 Nd  Nd11  1  0.71954  0.46954  0.25000  1
 Nd  Nd12  1  0.46954  0.25000  0.71954  1
 Nd  Nd13  1  0.78046  0.03046  0.75000  1
 Nd  Nd14  1  0.03046  0.75000  0.78046  1
 Nd  Nd15  1  0.25000  0.71954  0.46954  1
 Nd  Nd16  1  0.75000  0.78046  0.03046  1
 O  O1  1  0.25894  0.77128  0.73064  1
 O  O2  1  0.48766  0.75894  0.02831  1
 O  O3  1  0.01234  0.04065  0.27128  1
 O  O4  1  0.47169  0.23064  0.45935  1
 O  O5  1  0.76936  0.54065  0.52831  1
 O  O6  1  0.77128  0.73064  0.25894  1
 O  O7  1  0.72872  0.98766  0.95935  1
 O  O8  1  0.52831  0.76936  0.54065  1
 O  O9  1  0.04065  0.27128  0.01234  1
 O  O10  1  0.97169  0.51234  0.24106  1
 O  O11  1  0.26936  0.74106  0.22872  1
 O  O12  1  0.73064  0.25894  0.77128  1
 O  O13  1  0.45935  0.47169  0.23064  1
 O  O14  1  0.23064  0.45935  0.47169  1
 O  O15  1  0.27128  0.01234  0.04065  1
 O  O16  1  0.22872  0.26936  0.74106  1
 O  O17  1  0.98766  0.95935  0.72872  1
 O  O18  1  0.02831  0.48766  0.75894  1
 O  O19  1  0.74106  0.22872  0.26936  1
 O  O20  1  0.24106  0.97169  0.51234  1
 O  O21  1  0.54065  0.52831  0.76936  1
 O  O22  1  0.95935  0.72872  0.98766  1
 O  O23  1  0.75894  0.02831  0.48766  1
 O  O24  1  0.51234  0.24106  0.97169  1
