CIF file written using JARVIS-Tools package.
data_YSnAu
_symmetry_space_group_name_H-M  'P6_3mc'
_cell_length_a       4.69228
_cell_length_b       4.69228
_cell_length_c       7.4673
_cell_angle_alpha    90
_cell_angle_beta     90
_cell_angle_gamma    120

_symmetry_Int_Tables_number  186
_chemical_formula_structural  YSnAu
_chemical_formula_sum  Y2Sn2Au2
_cell_volume  142.38392190443787
_cell_formula_units_Z  2
loop_
  _symmetry_equiv_pos_site_id
 _symmetry_equiv_pos_as_xyz
 1  'x, y, z'
loop_
 _atom_site_type_symbol
 _atom_site_label
 _atom_site_symmetry_multiplicity
 _atom_site_fract_x
 _atom_site_fract_y
 _atom_site_fract_z
 _atom_site_fract_occupancy
 Au  Au1  1  0.66667  0.33333  0.07405  1
 Au  Au2  1  0.33333  0.66667  0.57405  1
 Sn  Sn1  1  0.33333  0.66667  0.97172  1
 Sn  Sn2  1  0.66667  0.33333  0.47172  1
 Y  Y1  1  0.00000  0.00000  0.74652  1
 Y  Y2  1  0.00000  0.00000  0.24652  1
