CIF file written using JARVIS-Tools package.
data_Tl2O3
_symmetry_space_group_name_H-M  'Ia-3'
_cell_length_a       9.29269
_cell_length_b       9.29269
_cell_length_c       9.29269
_cell_angle_alpha    109.471
_cell_angle_beta     109.471
_cell_angle_gamma    109.471

_symmetry_Int_Tables_number  206
_chemical_formula_structural  Tl2O3
_chemical_formula_sum  Tl6O24
_cell_volume  617.7346839987229
_cell_formula_units_Z  8
loop_
  _symmetry_equiv_pos_site_id
 _symmetry_equiv_pos_as_xyz
 1  'x, y, z'
loop_
 _atom_site_type_symbol
 _atom_site_label
 _atom_site_symmetry_multiplicity
 _atom_site_fract_x
 _atom_site_fract_y
 _atom_site_fract_z
 _atom_site_fract_occupancy
 O  O1  1  0.27126  0.00600  0.04259  1
 O  O2  1  0.99400  0.95741  0.72874  1
 O  O3  1  0.26526  0.77126  0.72867  1
 O  O4  1  0.50600  0.23474  0.96341  1
 O  O5  1  0.95741  0.72874  0.99400  1
 O  O6  1  0.72867  0.26526  0.77126  1
 O  O7  1  0.23474  0.96341  0.50600  1
 O  O8  1  0.54259  0.53659  0.77133  1
 O  O9  1  0.27133  0.73474  0.22874  1
 O  O10  1  0.76526  0.03659  0.49400  1
 O  O11  1  0.77126  0.72867  0.26526  1
 O  O12  1  0.96341  0.50600  0.23474  1
 O  O13  1  0.46341  0.22867  0.45741  1
 O  O14  1  0.00600  0.04259  0.27126  1
 O  O15  1  0.73474  0.22874  0.27133  1
 O  O16  1  0.49400  0.76526  0.03659  1
 O  O17  1  0.04259  0.27126  0.00600  1
 O  O18  1  0.77133  0.54259  0.53659  1
 O  O19  1  0.53659  0.77133  0.54259  1
 O  O20  1  0.45741  0.46341  0.22867  1
 O  O21  1  0.22874  0.27133  0.73474  1
 O  O22  1  0.03659  0.49400  0.76526  1
 O  O23  1  0.22867  0.45741  0.46341  1
 O  O24  1  0.72874  0.99400  0.95741  1
 Tl  Tl1  1  0.50000  0.50000  0.50000  1
 Tl  Tl2  1  0.00000  0.00000  0.50000  1
 Tl  Tl3  1  0.50000  0.00000  -0.00000  1
 Tl  Tl4  1  0.00000  0.50000  0.00000  1
 Tl  Tl5  1  0.25000  0.21774  0.96774  1
 Tl  Tl6  1  0.53226  0.75000  0.28226  1
 Tl  Tl7  1  0.28226  0.53226  0.75000  1
 Tl  Tl8  1  0.75000  0.28226  0.53226  1
 Tl  Tl9  1  0.75000  0.78226  0.03226  1
 Tl  Tl10  1  0.71774  0.46774  0.25000  1
 Tl  Tl11  1  0.46774  0.25000  0.71774  1
 Tl  Tl12  1  0.78226  0.03226  0.75000  1
 Tl  Tl13  1  0.21774  0.96774  0.25000  1
 Tl  Tl14  1  0.03226  0.75000  0.78226  1
 Tl  Tl15  1  0.96774  0.25000  0.21774  1
 Tl  Tl16  1  0.25000  0.71774  0.46774  1
