CIF file written using JARVIS-Tools package.
data_Er2C3
_symmetry_space_group_name_H-M  'I-43d'
_cell_length_a       7.03421
_cell_length_b       7.03421
_cell_length_c       7.03421
_cell_angle_alpha    109.471
_cell_angle_beta     109.471
_cell_angle_gamma    109.471

_symmetry_Int_Tables_number  220
_chemical_formula_structural  Er2C3
_chemical_formula_sum  Er8C2
_cell_volume  267.9314950426535
_cell_formula_units_Z  4
loop_
  _symmetry_equiv_pos_site_id
 _symmetry_equiv_pos_as_xyz
 1  'x, y, z'
loop_
 _atom_site_type_symbol
 _atom_site_label
 _atom_site_symmetry_multiplicity
 _atom_site_fract_x
 _atom_site_fract_y
 _atom_site_fract_z
 _atom_site_fract_occupancy
 C  C1  1  0.04275  0.75000  0.79275  1
 C  C2  1  0.75000  0.95725  0.20725  1
 C  C3  1  0.29275  0.25000  0.54275  1
 C  C4  1  0.54275  0.29275  0.25000  1
 C  C5  1  0.20725  0.75000  0.95725  1
 C  C6  1  0.95725  0.20725  0.75000  1
 C  C7  1  0.25000  0.70725  0.45725  1
 C  C8  1  0.70725  0.45725  0.25000  1
 C  C9  1  0.75000  0.79275  0.04275  1
 C  C10  1  0.45725  0.25000  0.70725  1
 C  C11  1  0.79275  0.04275  0.75000  1
 C  C12  1  0.25000  0.54275  0.29275  1
 Er  Er1  1  0.89895  0.50000  0.00000  1
 Er  Er2  1  0.60105  0.60105  0.60105  1
 Er  Er3  1  0.39895  0.50000  0.00000  1
 Er  Er4  1  0.50000  0.00000  0.39895  1
 Er  Er5  1  -0.00000  0.39895  0.50000  1
 Er  Er6  1  0.50000  0.00000  0.89895  1
 Er  Er7  1  -0.00000  0.89895  0.50000  1
 Er  Er8  1  0.10105  0.10105  0.10105  1
