CIF file written using JARVIS-Tools package.
data_HfPd3
_symmetry_space_group_name_H-M  'P6_3/mmc'
_cell_length_a       5.65024
_cell_length_b       5.65024
_cell_length_c       9.27815
_cell_angle_alpha    90
_cell_angle_beta     90
_cell_angle_gamma    120

_symmetry_Int_Tables_number  194
_chemical_formula_structural  HfPd3
_chemical_formula_sum  Hf4Pd2
_cell_volume  256.5228421171802
_cell_formula_units_Z  4
loop_
  _symmetry_equiv_pos_site_id
 _symmetry_equiv_pos_as_xyz
 1  'x, y, z'
loop_
 _atom_site_type_symbol
 _atom_site_label
 _atom_site_symmetry_multiplicity
 _atom_site_fract_x
 _atom_site_fract_y
 _atom_site_fract_z
 _atom_site_fract_occupancy
 Hf  Hf1  1  0.66667  0.33333  0.25000  1
 Hf  Hf2  1  0.33333  0.66667  0.75000  1
 Hf  Hf3  1  0.00000  0.00000  0.50000  1
 Hf  Hf4  1  0.00000  0.00000  0.00000  1
 Pd  Pd1  1  0.16862  0.83138  0.25000  1
 Pd  Pd2  1  0.83138  0.66275  0.75000  1
 Pd  Pd3  1  0.33725  0.16862  0.75000  1
 Pd  Pd4  1  0.66275  0.83138  0.25000  1
 Pd  Pd5  1  0.50000  0.50000  0.00000  1
 Pd  Pd6  1  0.50000  -0.00000  0.50000  1
 Pd  Pd7  1  -0.00000  0.50000  0.50000  1
 Pd  Pd8  1  -0.00000  0.50000  0.00000  1
 Pd  Pd9  1  0.50000  -0.00000  0.00000  1
 Pd  Pd10  1  0.50000  0.50000  0.50000  1
 Pd  Pd11  1  0.83138  0.16862  0.75000  1
 Pd  Pd12  1  0.16862  0.33725  0.25000  1
