CIF file written using JARVIS-Tools package.
data_SrTa4O11
_symmetry_space_group_name_H-M  'P6_322'
_cell_length_a       6.30331
_cell_length_b       6.30331
_cell_length_c       12.4567
_cell_angle_alpha    90
_cell_angle_beta     90
_cell_angle_gamma    120

_symmetry_Int_Tables_number  182
_chemical_formula_structural  SrTa4O11
_chemical_formula_sum  Sr2Ta8O22
_cell_volume  428.6177826182835
_cell_formula_units_Z  2
loop_
  _symmetry_equiv_pos_site_id
 _symmetry_equiv_pos_as_xyz
 1  'x, y, z'
loop_
 _atom_site_type_symbol
 _atom_site_label
 _atom_site_symmetry_multiplicity
 _atom_site_fract_x
 _atom_site_fract_y
 _atom_site_fract_z
 _atom_site_fract_occupancy
 O  O1  1  0.43247  0.37026  0.65450  1
 O  O2  1  0.33333  0.66667  0.53438  1
 O  O3  1  0.66667  0.33333  0.03438  1
 O  O4  1  0.66667  0.33333  0.46562  1
 O  O5  1  0.33333  0.66667  0.96562  1
 O  O6  1  0.00000  0.75407  0.00000  1
 O  O7  1  0.56753  0.62974  0.15450  1
 O  O8  1  0.75407  0.75407  0.50000  1
 O  O9  1  0.24593  0.24593  0.00000  1
 O  O10  1  0.75407  0.00000  0.00000  1
 O  O11  1  0.24593  -0.00000  0.50000  1
 O  O12  1  0.56753  0.93778  0.34550  1
 O  O13  1  0.93778  0.37026  0.84550  1
 O  O14  1  0.06222  0.62974  0.34550  1
 O  O15  1  0.37026  0.43247  0.34550  1
 O  O16  1  0.06222  0.43247  0.15450  1
 O  O17  1  0.93778  0.56753  0.65450  1
 O  O18  1  0.43247  0.06222  0.84550  1
 O  O19  1  0.62974  0.06222  0.65450  1
 O  O20  1  0.37026  0.93778  0.15450  1
 O  O21  1  0.62974  0.56753  0.84550  1
 O  O22  1  -0.00000  0.24593  0.50000  1
 Sr  Sr1  1  0.33333  0.66667  0.75000  1
 Sr  Sr2  1  0.66667  0.33333  0.25000  1
 Ta  Ta1  1  0.64264  -0.00000  0.50000  1
 Ta  Ta2  1  0.33333  0.66667  0.25000  1
 Ta  Ta3  1  0.66667  0.33333  0.75000  1
 Ta  Ta4  1  0.00000  0.35736  0.00000  1
 Ta  Ta5  1  -0.00000  0.64264  0.50000  1
 Ta  Ta6  1  0.35736  0.35736  0.50000  1
 Ta  Ta7  1  0.64264  0.64264  0.00000  1
 Ta  Ta8  1  0.35736  0.00000  0.00000  1
