CIF file written using JARVIS-Tools package.
data_TiBO3
_symmetry_space_group_name_H-M  'R-3c'
_cell_length_a       5.64733
_cell_length_b       5.64734
_cell_length_c       5.64733
_cell_angle_alpha    49.1818
_cell_angle_beta     49.1818
_cell_angle_gamma    49.1818

_symmetry_Int_Tables_number  167
_chemical_formula_structural  TiBO3
_chemical_formula_sum  Ti2B2O6
_cell_volume  94.75159127249172
_cell_formula_units_Z  2
loop_
  _symmetry_equiv_pos_site_id
 _symmetry_equiv_pos_as_xyz
 1  'x, y, z'
loop_
 _atom_site_type_symbol
 _atom_site_label
 _atom_site_symmetry_multiplicity
 _atom_site_fract_x
 _atom_site_fract_y
 _atom_site_fract_z
 _atom_site_fract_occupancy
 B  B1  1  0.75000  0.75000  0.75000  1
 B  B2  1  0.25000  0.25000  0.25000  1
 O  O1  1  0.45506  0.04494  0.75000  1
 O  O2  1  0.75000  0.45506  0.04494  1
 O  O3  1  0.95506  0.25000  0.54494  1
 O  O4  1  0.54494  0.95506  0.25000  1
 O  O5  1  0.25000  0.54494  0.95506  1
 O  O6  1  0.04494  0.75000  0.45506  1
 Ti  Ti1  1  0.50000  0.50000  0.50000  1
 Ti  Ti2  1  0.00000  0.00000  0.00000  1
