CIF file written using JARVIS-Tools package.
data_RbFe2S3
_symmetry_space_group_name_H-M  'Cmcm'
_cell_length_a       5.1606
_cell_length_b       7.08673
_cell_length_c       7.08673
_cell_angle_alpha    101.487
_cell_angle_beta     90
_cell_angle_gamma    90

_symmetry_Int_Tables_number  63
_chemical_formula_structural  RbFe2S3
_chemical_formula_sum  Rb2Fe4S6
_cell_volume  253.98281842841473
_cell_formula_units_Z  2
loop_
  _symmetry_equiv_pos_site_id
 _symmetry_equiv_pos_as_xyz
 1  'x, y, z'
loop_
 _atom_site_type_symbol
 _atom_site_label
 _atom_site_symmetry_multiplicity
 _atom_site_fract_x
 _atom_site_fract_y
 _atom_site_fract_z
 _atom_site_fract_occupancy
 Fe  Fe1  1  0.00000  0.85782  0.85782  1
 Fe  Fe2  1  0.00000  0.14218  0.14218  1
 Fe  Fe3  1  0.50000  0.14218  0.14218  1
 Fe  Fe4  1  0.50000  0.85782  0.85782  1
 Rb  Rb1  1  0.25000  0.32782  0.67218  1
 Rb  Rb2  1  0.75000  0.67218  0.32782  1
 S  S1  1  0.75000  0.16793  0.38381  1
 S  S2  1  0.25000  0.83207  0.61619  1
 S  S3  1  0.25000  0.38381  0.16793  1
 S  S4  1  0.75000  0.61619  0.83207  1
 S  S5  1  0.75000  0.11077  0.88923  1
 S  S6  1  0.25000  0.88923  0.11077  1
