CIF file written using JARVIS-Tools package.
data_Pr3OsI3
_symmetry_space_group_name_H-M  'P2_1/m'
_cell_length_a       9.23521
_cell_length_b       4.33752
_cell_length_c       12.5565
_cell_angle_alpha    90
_cell_angle_beta     93.2368
_cell_angle_gamma    90

_symmetry_Int_Tables_number  11
_chemical_formula_structural  Pr3OsI3
_chemical_formula_sum  Pr6Os2I6
_cell_volume  502.18580562653614
_cell_formula_units_Z  2
loop_
  _symmetry_equiv_pos_site_id
 _symmetry_equiv_pos_as_xyz
 1  'x, y, z'
loop_
 _atom_site_type_symbol
 _atom_site_label
 _atom_site_symmetry_multiplicity
 _atom_site_fract_x
 _atom_site_fract_y
 _atom_site_fract_z
 _atom_site_fract_occupancy
 I  I1  1  0.39423  0.25000  0.86392  1
 I  I2  1  0.14031  0.75000  0.61734  1
 I  I3  1  0.60577  0.75000  0.13608  1
 I  I4  1  0.37495  0.25000  0.37980  1
 I  I5  1  0.62505  0.75000  0.62020  1
 I  I6  1  0.85969  0.25000  0.38266  1
 Os  Os1  1  0.88884  0.25000  0.87865  1
 Os  Os2  1  0.11116  0.75000  0.12135  1
 Pr  Pr1  1  0.68694  0.75000  0.87956  1
 Pr  Pr2  1  0.88220  0.25000  0.66287  1
 Pr  Pr3  1  0.31306  0.25000  0.12044  1
 Pr  Pr4  1  0.90102  0.25000  0.11206  1
 Pr  Pr5  1  0.11780  0.75000  0.33713  1
 Pr  Pr6  1  0.09898  0.75000  0.88794  1
