CIF file written using JARVIS-Tools package.
data_Sr3P14
_symmetry_space_group_name_H-M  'P2_1/c'
_cell_length_a       6.37641
_cell_length_b       12.7641
_cell_length_c       11.6303
_cell_angle_alpha    90
_cell_angle_beta     122.98
_cell_angle_gamma    90

_symmetry_Int_Tables_number  14
_chemical_formula_structural  Sr3P14
_chemical_formula_sum  Sr6P28
_cell_volume  794.0436350373868
_cell_formula_units_Z  2
loop_
  _symmetry_equiv_pos_site_id
 _symmetry_equiv_pos_as_xyz
 1  'x, y, z'
loop_
 _atom_site_type_symbol
 _atom_site_label
 _atom_site_symmetry_multiplicity
 _atom_site_fract_x
 _atom_site_fract_y
 _atom_site_fract_z
 _atom_site_fract_occupancy
 P  P1  1  0.97022  0.14587  0.85653  1
 P  P2  1  0.62197  0.67987  0.95779  1
 P  P3  1  0.37803  0.17987  0.54221  1
 P  P4  1  0.37803  0.32013  0.04221  1
 P  P5  1  0.62197  0.82013  0.45779  1
 P  P6  1  0.29142  0.58096  0.86457  1
 P  P7  1  0.70858  0.08096  0.63543  1
 P  P8  1  0.70858  0.41904  0.13543  1
 P  P9  1  0.29142  0.91904  0.36457  1
 P  P10  1  0.63178  0.71119  0.77250  1
 P  P11  1  0.36822  0.21119  0.72750  1
 P  P12  1  0.97022  0.35413  0.35653  1
 P  P13  1  0.63178  0.78881  0.27250  1
 P  P14  1  0.36822  0.28881  0.22750  1
 P  P15  1  0.41549  0.05298  0.82124  1
 P  P16  1  0.73509  0.99973  0.81482  1
 P  P17  1  0.02978  0.85413  0.14347  1
 P  P18  1  0.02978  0.64587  0.64347  1
 P  P19  1  0.58451  0.94702  0.17876  1
 P  P20  1  0.58451  0.55298  0.67876  1
 P  P21  1  0.75131  0.27466  0.86483  1
 P  P22  1  0.75131  0.22534  0.36483  1
 P  P23  1  0.24869  0.77466  0.63517  1
 P  P24  1  0.26491  0.00027  0.18518  1
 P  P25  1  0.26491  0.49973  0.68518  1
 P  P26  1  0.41549  0.44702  0.32124  1
 P  P27  1  0.73509  0.50027  0.31482  1
 P  P28  1  0.24869  0.72534  0.13517  1
 Sr  Sr1  1  0.18484  0.65802  0.38069  1
 Sr  Sr2  1  0.81516  0.15802  0.11931  1
 Sr  Sr3  1  0.81516  0.34198  0.61931  1
 Sr  Sr4  1  0.18484  0.84198  0.88069  1
 Sr  Sr5  1  0.00000  0.50000  0.00000  1
 Sr  Sr6  1  -0.00000  0.00000  0.50000  1
