CIF file written using JARVIS-Tools package.
data_Li2CuF5
_symmetry_space_group_name_H-M  'Pbam'
_cell_length_a       2.92413
_cell_length_b       7.17344
_cell_length_c       8.48779
_cell_angle_alpha    89.9979
_cell_angle_beta     89.9978
_cell_angle_gamma    89.9966

_symmetry_Int_Tables_number  55
_chemical_formula_structural  Li2CuF5
_chemical_formula_sum  Li4Cu2F0
_cell_volume  178.04071267235585
_cell_formula_units_Z  2
loop_
  _symmetry_equiv_pos_site_id
 _symmetry_equiv_pos_as_xyz
 1  'x, y, z'
loop_
 _atom_site_type_symbol
 _atom_site_label
 _atom_site_symmetry_multiplicity
 _atom_site_fract_x
 _atom_site_fract_y
 _atom_site_fract_z
 _atom_site_fract_occupancy
 Cu  Cu1  1  0.00421  0.99924  0.99960  1
 Cu  Cu2  1  0.00419  0.49919  0.49960  1
 F  F1  1  0.00415  0.49920  0.99958  1
 F  F2  1  0.50419  0.16394  0.06319  1
 F  F3  1  0.00420  0.89824  0.20399  1
 F  F4  1  0.00418  0.39825  0.29519  1
 F  F5  1  0.50417  0.66389  0.43603  1
 F  F6  1  0.00416  -0.00085  0.49959  1
 F  F7  1  0.50423  0.33448  0.56316  1
 F  F8  1  0.00422  0.60015  0.70399  1
 F  F9  1  0.00426  0.10019  0.79519  1
 F  F10  1  0.50428  0.83453  0.93605  1
 Li  Li1  1  0.50412  0.43070  0.14121  1
 Li  Li2  1  0.50412  0.93064  0.35796  1
 Li  Li3  1  0.50423  0.06769  0.64119  1
 Li  Li4  1  0.50420  0.56774  0.85797  1
