CIF file written using JARVIS-Tools package.
data_Ta2Ni3S8
_symmetry_space_group_name_H-M  'Pbam'
_cell_length_a       3.34775
_cell_length_b       10.1375
_cell_length_c       14.2003
_cell_angle_alpha    90
_cell_angle_beta     90
_cell_angle_gamma    90

_symmetry_Int_Tables_number  55
_chemical_formula_structural  Ta2Ni3S8
_chemical_formula_sum  Ta4Ni6S6
_cell_volume  481.92581625645045
_cell_formula_units_Z  2
loop_
  _symmetry_equiv_pos_site_id
 _symmetry_equiv_pos_as_xyz
 1  'x, y, z'
loop_
 _atom_site_type_symbol
 _atom_site_label
 _atom_site_symmetry_multiplicity
 _atom_site_fract_x
 _atom_site_fract_y
 _atom_site_fract_z
 _atom_site_fract_occupancy
 Ni  Ni1  1  0.00000  0.50000  0.50000  1
 Ni  Ni2  1  0.00000  0.86912  0.27470  1
 Ni  Ni3  1  0.00000  0.13088  0.72530  1
 Ni  Ni4  1  0.00000  0.63088  0.77470  1
 Ni  Ni5  1  0.00000  0.36912  0.22530  1
 Ni  Ni6  1  0.00000  0.00000  0.00000  1
 S  S1  1  0.50000  0.94150  0.36872  1
 S  S2  1  0.00000  0.97292  0.84501  1
 S  S3  1  0.50000  0.74626  0.21369  1
 S  S4  1  0.50000  0.25374  0.78631  1
 S  S5  1  0.00000  0.52708  0.34501  1
 S  S6  1  0.50000  0.24626  0.28631  1
 S  S7  1  0.00000  0.71967  0.50820  1
 S  S8  1  0.50000  0.75374  0.71369  1
 S  S9  1  0.50000  0.55850  0.86872  1
 S  S10  1  0.00000  0.47292  0.65499  1
 S  S11  1  0.50000  0.05850  0.63128  1
 S  S12  1  0.00000  0.02708  0.15499  1
 S  S13  1  0.00000  0.21967  0.99180  1
 S  S14  1  0.00000  0.78033  0.00820  1
 S  S15  1  0.00000  0.28033  0.49180  1
 S  S16  1  0.50000  0.44150  0.13128  1
 Ta  Ta1  1  0.50000  0.79808  0.88089  1
 Ta  Ta2  1  0.50000  0.29808  0.61911  1
 Ta  Ta3  1  0.50000  0.70192  0.38089  1
 Ta  Ta4  1  0.50000  0.20192  0.11911  1
