CIF file written using JARVIS-Tools package.
data_K6MnSe4
_symmetry_space_group_name_H-M  'P6_3mc'
_cell_length_a       10.2209
_cell_length_b       10.2209
_cell_length_c       7.856
_cell_angle_alpha    90
_cell_angle_beta     90
_cell_angle_gamma    120

_symmetry_Int_Tables_number  186
_chemical_formula_structural  K6MnSe4
_chemical_formula_sum  K2Mn2Se8
_cell_volume  710.740175480912
_cell_formula_units_Z  2
loop_
  _symmetry_equiv_pos_site_id
 _symmetry_equiv_pos_as_xyz
 1  'x, y, z'
loop_
 _atom_site_type_symbol
 _atom_site_label
 _atom_site_symmetry_multiplicity
 _atom_site_fract_x
 _atom_site_fract_y
 _atom_site_fract_z
 _atom_site_fract_occupancy
 K  K1  1  0.14658  0.85342  0.54712  1
 K  K2  1  0.85342  0.14658  0.04712  1
 K  K3  1  0.85342  0.70684  0.04712  1
 K  K4  1  0.14658  0.29316  0.54712  1
 K  K5  1  0.70684  0.85342  0.54712  1
 K  K6  1  0.94568  0.47284  0.36578  1
 K  K7  1  0.29316  0.14658  0.04712  1
 K  K8  1  0.05432  0.52716  0.86578  1
 K  K9  1  0.47284  0.94568  0.86578  1
 K  K10  1  0.52716  0.05432  0.36578  1
 K  K11  1  0.47284  0.52716  0.86578  1
 K  K12  1  0.52716  0.47284  0.36578  1
 Mn  Mn1  1  0.33333  0.66667  0.24990  1
 Mn  Mn2  1  0.66667  0.33333  0.74990  1
 Se  Se1  1  0.19511  0.39022  0.14914  1
 Se  Se2  1  0.60978  0.80489  0.14914  1
 Se  Se3  1  0.33333  0.66667  0.57670  1
 Se  Se4  1  0.66667  0.33333  0.07670  1
 Se  Se5  1  0.19511  0.80489  0.14914  1
 Se  Se6  1  0.39022  0.19511  0.64914  1
 Se  Se7  1  0.80489  0.60978  0.64914  1
 Se  Se8  1  0.80489  0.19511  0.64914  1
