CIF file written using JARVIS-Tools package.
data_CaSnS3
_symmetry_space_group_name_H-M  'R-3m'
_cell_length_a       6.78233
_cell_length_b       6.78233
_cell_length_c       10.3076
_cell_angle_alpha    70.7922
_cell_angle_beta     70.7921
_cell_angle_gamma    60

_symmetry_Int_Tables_number  166
_chemical_formula_structural  CaSnS3
_chemical_formula_sum  Ca3Sn3S9
_cell_volume  379.84099638569967
_cell_formula_units_Z  3
loop_
  _symmetry_equiv_pos_site_id
 _symmetry_equiv_pos_as_xyz
 1  'x, y, z'
loop_
 _atom_site_type_symbol
 _atom_site_label
 _atom_site_symmetry_multiplicity
 _atom_site_fract_x
 _atom_site_fract_y
 _atom_site_fract_z
 _atom_site_fract_occupancy
 Ca  Ca1  1  0.00000  0.00000  0.00000  1
 Ca  Ca2  1  0.25635  0.25635  0.23094  1
 Ca  Ca3  1  0.74365  0.74365  0.76906  1
 S  S1  1  0.00000  0.50000  0.00000  1
 S  S2  1  0.50000  0.50000  0.00000  1
 S  S3  1  0.50000  0.00000  0.00000  1
 S  S4  1  0.78723  0.26932  0.67413  1
 S  S5  1  0.26932  0.26932  0.67413  1
 S  S6  1  0.26932  0.78723  0.67413  1
 S  S7  1  0.21277  0.73068  0.32587  1
 S  S8  1  0.73068  0.73068  0.32587  1
 S  S9  1  0.73068  0.21277  0.32587  1
 Sn  Sn1  1  0.50000  0.50000  0.50000  1
 Sn  Sn2  1  0.39141  0.39141  0.82576  1
 Sn  Sn3  1  0.60859  0.60859  0.17424  1
