CIF file written using JARVIS-Tools package.
data_Na2PSe3
_symmetry_space_group_name_H-M  'Cmce'
_cell_length_a       7.98435
_cell_length_b       8.87946
_cell_length_c       8.87945
_cell_angle_alpha    96.9519
_cell_angle_beta     90
_cell_angle_gamma    90

_symmetry_Int_Tables_number  64
_chemical_formula_structural  Na2PSe3
_chemical_formula_sum  Na8P4Se2
_cell_volume  624.8952195689888
_cell_formula_units_Z  4
loop_
  _symmetry_equiv_pos_site_id
 _symmetry_equiv_pos_as_xyz
 1  'x, y, z'
loop_
 _atom_site_type_symbol
 _atom_site_label
 _atom_site_symmetry_multiplicity
 _atom_site_fract_x
 _atom_site_fract_y
 _atom_site_fract_z
 _atom_site_fract_occupancy
 Na  Na1  1  0.25000  0.27808  0.22192  1
 Na  Na2  1  0.75000  0.22192  0.27808  1
 Na  Na3  1  0.15272  0.81520  0.18480  1
 Na  Na4  1  0.84728  0.18480  0.81520  1
 Na  Na5  1  0.25000  0.77808  0.72192  1
 Na  Na6  1  0.34728  0.31520  0.68480  1
 Na  Na7  1  0.65272  0.68480  0.31520  1
 Na  Na8  1  0.75000  0.72192  0.77808  1
 P  P1  1  0.44747  0.07960  0.92040  1
 P  P2  1  0.05253  0.57960  0.42040  1
 P  P3  1  0.55253  0.92040  0.07960  1
 P  P4  1  0.94747  0.42040  0.57960  1
 Se  Se1  1  0.03764  0.50029  0.81132  1
 Se  Se2  1  0.46236  0.00029  0.31132  1
 Se  Se3  1  0.53764  -0.00029  0.68868  1
 Se  Se4  1  0.53764  0.31132  0.00029  1
 Se  Se5  1  0.17237  0.05549  0.94451  1
 Se  Se6  1  0.96236  0.81132  0.50029  1
 Se  Se7  1  0.96236  0.49971  0.18868  1
 Se  Se8  1  0.46236  0.68868  -0.00029  1
 Se  Se9  1  0.67237  0.44451  0.55549  1
 Se  Se10  1  0.32763  0.55549  0.44451  1
 Se  Se11  1  0.03764  0.18868  0.49971  1
 Se  Se12  1  0.82763  0.94451  0.05549  1
