CIF file written using JARVIS-Tools package.
data_MgMo2O4
_symmetry_space_group_name_H-M  'Cmcm'
_cell_length_a       2.79126
_cell_length_b       5.04162
_cell_length_c       10.4002
_cell_angle_alpha    90
_cell_angle_beta     90
_cell_angle_gamma    106.071

_symmetry_Int_Tables_number  63
_chemical_formula_structural  MgMo2O4
_chemical_formula_sum  Mg2Mo4O8
_cell_volume  140.6374763310628
_cell_formula_units_Z  2
loop_
  _symmetry_equiv_pos_site_id
 _symmetry_equiv_pos_as_xyz
 1  'x, y, z'
loop_
 _atom_site_type_symbol
 _atom_site_label
 _atom_site_symmetry_multiplicity
 _atom_site_fract_x
 _atom_site_fract_y
 _atom_site_fract_z
 _atom_site_fract_occupancy
 Mg  Mg1  1  0.41484  0.82967  0.75000  1
 Mg  Mg2  1  0.58516  0.17033  0.25000  1
 Mo  Mo1  1  0.84260  0.68520  0.06308  1
 Mo  Mo2  1  0.15740  0.31480  0.93692  1
 Mo  Mo3  1  0.84260  0.68520  0.43692  1
 Mo  Mo4  1  0.15740  0.31480  0.56308  1
 O  O1  1  0.19762  0.39524  0.36790  1
 O  O2  1  0.80238  0.60476  0.63210  1
 O  O3  1  0.80238  0.60476  0.86790  1
 O  O4  1  0.19762  0.39524  0.13210  1
 O  O5  1  0.93252  0.86505  0.25000  1
 O  O6  1  0.06748  0.13495  0.75000  1
 O  O7  1  0.50000  0.00000  0.00000  1
 O  O8  1  0.50000  0.00000  0.50000  1
