CIF file written using JARVIS-Tools package.
data_CeCo4B4
_symmetry_space_group_name_H-M  'P4_2/nmc'
_cell_length_a       5.04569
_cell_length_b       5.04569
_cell_length_c       7.05064
_cell_angle_alpha    90
_cell_angle_beta     90
_cell_angle_gamma    90

_symmetry_Int_Tables_number  137
_chemical_formula_structural  CeCo4B4
_chemical_formula_sum  Ce2Co8B8
_cell_volume  179.5018283893591
_cell_formula_units_Z  2
loop_
  _symmetry_equiv_pos_site_id
 _symmetry_equiv_pos_as_xyz
 1  'x, y, z'
loop_
 _atom_site_type_symbol
 _atom_site_label
 _atom_site_symmetry_multiplicity
 _atom_site_fract_x
 _atom_site_fract_y
 _atom_site_fract_z
 _atom_site_fract_occupancy
 B  B1  1  0.67235  0.00000  0.84097  1
 B  B2  1  0.50000  0.82765  0.34097  1
 B  B3  1  0.50000  0.17235  0.34097  1
 B  B4  1  0.82765  0.50000  0.65903  1
 B  B5  1  0.17235  0.50000  0.65903  1
 B  B6  1  0.00000  0.32765  0.15903  1
 B  B7  1  0.32765  0.00000  0.84097  1
 B  B8  1  0.00000  0.67235  0.15903  1
 Ce  Ce1  1  0.00000  0.00000  0.50000  1
 Ce  Ce2  1  0.50000  0.50000  0.00000  1
 Co  Co1  1  0.25223  0.50000  0.36339  1
 Co  Co2  1  0.00000  0.24777  0.86339  1
 Co  Co3  1  0.50000  0.74777  0.63661  1
 Co  Co4  1  0.74777  0.50000  0.36339  1
 Co  Co5  1  0.50000  0.25223  0.63661  1
 Co  Co6  1  0.00000  0.75223  0.86339  1
 Co  Co7  1  0.75223  0.00000  0.13661  1
 Co  Co8  1  0.24777  0.00000  0.13661  1
