CIF file written using JARVIS-Tools package.
data_Tm5Mg24
_symmetry_space_group_name_H-M  'I-43m'
_cell_length_a       9.67589
_cell_length_b       9.67589
_cell_length_c       9.67589
_cell_angle_alpha    109.471
_cell_angle_beta     109.471
_cell_angle_gamma    109.471

_symmetry_Int_Tables_number  217
_chemical_formula_structural  Tm5Mg24
_chemical_formula_sum  Tm5Mg24
_cell_volume  697.3504699436045
_cell_formula_units_Z  1
loop_
  _symmetry_equiv_pos_site_id
 _symmetry_equiv_pos_as_xyz
 1  'x, y, z'
loop_
 _atom_site_type_symbol
 _atom_site_label
 _atom_site_symmetry_multiplicity
 _atom_site_fract_x
 _atom_site_fract_y
 _atom_site_fract_z
 _atom_site_fract_occupancy
 Mg  Mg1  1  0.19059  0.19059  0.81954  1
 Mg  Mg2  1  0.37104  0.18046  0.37104  1
 Mg  Mg3  1  0.18046  0.37104  0.37104  1
 Mg  Mg4  1  -0.00000  0.62896  0.80941  1
 Mg  Mg5  1  0.62896  -0.00000  0.80941  1
 Mg  Mg6  1  0.38934  0.38934  0.71155  1
 Mg  Mg7  1  0.61066  0.32221  0.00000  1
 Mg  Mg8  1  0.32221  0.61066  -0.00000  1
 Mg  Mg9  1  0.00000  0.32221  0.61066  1
 Mg  Mg10  1  0.28845  0.67779  0.67779  1
 Mg  Mg11  1  0.67779  0.28845  0.67779  1
 Mg  Mg12  1  0.32221  0.00000  0.61066  1
 Mg  Mg13  1  0.61066  0.00000  0.32221  1
 Mg  Mg14  1  0.00000  0.61066  0.32221  1
 Mg  Mg15  1  0.71155  0.38934  0.38934  1
 Mg  Mg16  1  0.67779  0.67779  0.28845  1
 Mg  Mg17  1  0.37104  0.37104  0.18046  1
 Mg  Mg18  1  0.62896  0.80941  0.00000  1
 Mg  Mg19  1  0.80941  0.62896  -0.00000  1
 Mg  Mg20  1  -0.00000  0.80941  0.62896  1
 Mg  Mg21  1  0.81954  0.19059  0.19059  1
 Mg  Mg22  1  0.19059  0.81954  0.19059  1
 Mg  Mg23  1  0.80941  -0.00000  0.62896  1
 Mg  Mg24  1  0.38934  0.71155  0.38934  1
 Tm  Tm1  1  0.62826  0.62826  0.62826  1
 Tm  Tm2  1  -0.00000  -0.00000  0.37174  1
 Tm  Tm3  1  -0.00000  0.37174  -0.00000  1
 Tm  Tm4  1  0.37174  0.00000  0.00000  1
 Tm  Tm5  1  0.00000  0.00000  0.00000  1
