CIF file written using JARVIS-Tools package.
data_As3Ir
_symmetry_space_group_name_H-M  'Im-3'
_cell_length_a       7.45777
_cell_length_b       7.45777
_cell_length_c       7.45777
_cell_angle_alpha    109.471
_cell_angle_beta     109.471
_cell_angle_gamma    109.471

_symmetry_Int_Tables_number  204
_chemical_formula_structural  As3Ir
_chemical_formula_sum  As2Ir4
_cell_volume  319.30454187987084
_cell_formula_units_Z  4
loop_
  _symmetry_equiv_pos_site_id
 _symmetry_equiv_pos_as_xyz
 1  'x, y, z'
loop_
 _atom_site_type_symbol
 _atom_site_label
 _atom_site_symmetry_multiplicity
 _atom_site_fract_x
 _atom_site_fract_y
 _atom_site_fract_z
 _atom_site_fract_occupancy
 As  As1  1  0.49288  0.14557  0.34731  1
 As  As2  1  0.14557  0.65269  0.79826  1
 As  As3  1  0.34731  0.20174  0.85443  1
 As  As4  1  0.85443  0.65269  0.50712  1
 As  As5  1  0.65269  0.79826  0.14557  1
 As  As6  1  0.85443  0.34731  0.20174  1
 As  As7  1  0.65269  0.50712  0.85443  1
 As  As8  1  0.34731  0.49288  0.14557  1
 As  As9  1  0.14557  0.34731  0.49288  1
 As  As10  1  0.79826  0.14557  0.65269  1
 As  As11  1  0.20174  0.85443  0.34731  1
 As  As12  1  0.50712  0.85443  0.65269  1
 Ir  Ir1  1  0.50000  0.50000  0.50000  1
 Ir  Ir2  1  -0.00000  0.50000  0.00000  1
 Ir  Ir3  1  0.00000  0.00000  0.50000  1
 Ir  Ir4  1  0.50000  0.00000  0.00000  1
