CIF file written using JARVIS-Tools package.
data_In5AgS8
_symmetry_space_group_name_H-M  'F-43m'
_cell_length_a       7.746
_cell_length_b       7.746
_cell_length_c       7.746
_cell_angle_alpha    60
_cell_angle_beta     60
_cell_angle_gamma    60

_symmetry_Int_Tables_number  216
_chemical_formula_structural  In5AgS8
_chemical_formula_sum  In5AgS8
_cell_volume  328.63723250991376
_cell_formula_units_Z  1
loop_
  _symmetry_equiv_pos_site_id
 _symmetry_equiv_pos_as_xyz
 1  'x, y, z'
loop_
 _atom_site_type_symbol
 _atom_site_label
 _atom_site_symmetry_multiplicity
 _atom_site_fract_x
 _atom_site_fract_y
 _atom_site_fract_z
 _atom_site_fract_occupancy
 Ag  Ag1  1  0.25000  0.25000  0.25000  1
 In  In1  1  0.00000  0.00000  0.00000  1
 In  In2  1  0.14252  0.61916  0.61916  1
 In  In3  1  0.61916  0.14252  0.61916  1
 In  In4  1  0.61916  0.61916  0.14252  1
 In  In5  1  0.61916  0.61916  0.61916  1
 S  S1  1  0.38200  0.38200  0.38200  1
 S  S2  1  0.38200  0.38200  0.85400  1
 S  S3  1  0.38200  0.85400  0.38200  1
 S  S4  1  0.85400  0.38200  0.38200  1
 S  S5  1  0.40210  0.86597  0.86597  1
 S  S6  1  0.86597  0.86597  0.40210  1
 S  S7  1  0.86597  0.40210  0.86597  1
 S  S8  1  0.86597  0.86597  0.86597  1
