CIF file written using JARVIS-Tools package.
data_Ca2MnSbO6
_symmetry_space_group_name_H-M  'P2_1/m'
_cell_length_a       5.52079
_cell_length_b       7.69918
_cell_length_c       5.62825
_cell_angle_alpha    90
_cell_angle_beta     92.803
_cell_angle_gamma    90

_symmetry_Int_Tables_number  11
_chemical_formula_structural  Ca2MnSbO6
_chemical_formula_sum  Ca4Mn2Sb2O2
_cell_volume  238.94570462476378
_cell_formula_units_Z  2
loop_
  _symmetry_equiv_pos_site_id
 _symmetry_equiv_pos_as_xyz
 1  'x, y, z'
loop_
 _atom_site_type_symbol
 _atom_site_label
 _atom_site_symmetry_multiplicity
 _atom_site_fract_x
 _atom_site_fract_y
 _atom_site_fract_z
 _atom_site_fract_occupancy
 Ca  Ca1  1  0.47952  0.75000  0.43732  1
 Ca  Ca2  1  0.52048  0.25000  0.56268  1
 Ca  Ca3  1  0.99625  0.75000  0.95973  1
 Ca  Ca4  1  0.00375  0.25000  0.04027  1
 Mn  Mn1  1  0.50000  0.50000  -0.00000  1
 Mn  Mn2  1  0.50000  0.00000  -0.00000  1
 O  O1  1  0.69828  0.45101  0.29512  1
 O  O2  1  0.89419  0.75000  0.53810  1
 O  O3  1  0.30172  0.95101  0.70488  1
 O  O4  1  0.18693  0.55043  0.21590  1
 O  O5  1  0.81307  0.05043  0.78410  1
 O  O6  1  0.18693  0.94957  0.21590  1
 O  O7  1  0.58101  0.75000  0.03189  1
 O  O8  1  0.69828  0.04899  0.29512  1
 O  O9  1  0.81307  0.44957  0.78410  1
 O  O10  1  0.30172  0.54899  0.70488  1
 O  O11  1  0.10581  0.25000  0.46190  1
 O  O12  1  0.41899  0.25000  0.96811  1
 Sb  Sb1  1  -0.00000  0.00000  0.50000  1
 Sb  Sb2  1  -0.00000  0.50000  0.50000  1
