CIF file written using JARVIS-Tools package.
data_SrCaPb
_symmetry_space_group_name_H-M  'Pnma'
_cell_length_a       5.19122
_cell_length_b       8.43314
_cell_length_c       9.62341
_cell_angle_alpha    90
_cell_angle_beta     90
_cell_angle_gamma    90

_symmetry_Int_Tables_number  62
_chemical_formula_structural  SrCaPb
_chemical_formula_sum  Sr4Ca4Pb4
_cell_volume  421.2959919017443
_cell_formula_units_Z  4
loop_
  _symmetry_equiv_pos_site_id
 _symmetry_equiv_pos_as_xyz
 1  'x, y, z'
loop_
 _atom_site_type_symbol
 _atom_site_label
 _atom_site_symmetry_multiplicity
 _atom_site_fract_x
 _atom_site_fract_y
 _atom_site_fract_z
 _atom_site_fract_occupancy
 Ca  Ca1  1  0.75000  0.85012  0.07164  1
 Ca  Ca2  1  0.25000  0.14988  0.92836  1
 Ca  Ca3  1  0.75000  0.35012  0.42836  1
 Ca  Ca4  1  0.25000  0.64988  0.57164  1
 Pb  Pb1  1  0.75000  0.73633  0.39211  1
 Pb  Pb2  1  0.25000  0.26367  0.60789  1
 Pb  Pb3  1  0.75000  0.23633  0.10789  1
 Pb  Pb4  1  0.25000  0.76367  0.89211  1
 Sr  Sr1  1  0.75000  0.97938  0.68318  1
 Sr  Sr2  1  0.25000  0.02062  0.31682  1
 Sr  Sr3  1  0.75000  0.47938  0.81682  1
 Sr  Sr4  1  0.25000  0.52062  0.18318  1
