CIF file written using JARVIS-Tools package.
data_Nb2Se3
_symmetry_space_group_name_H-M  'P2_1/m'
_cell_length_a       6.60943
_cell_length_b       3.46906
_cell_length_c       9.3108
_cell_angle_alpha    90
_cell_angle_beta     103.703
_cell_angle_gamma    90

_symmetry_Int_Tables_number  11
_chemical_formula_structural  Nb2Se3
_chemical_formula_sum  Nb4Se6
_cell_volume  207.40668177078712
_cell_formula_units_Z  2
loop_
  _symmetry_equiv_pos_site_id
 _symmetry_equiv_pos_as_xyz
 1  'x, y, z'
loop_
 _atom_site_type_symbol
 _atom_site_label
 _atom_site_symmetry_multiplicity
 _atom_site_fract_x
 _atom_site_fract_y
 _atom_site_fract_z
 _atom_site_fract_occupancy
 Nb  Nb1  1  0.88645  0.25000  0.36546  1
 Nb  Nb2  1  0.11355  0.75000  0.63454  1
 Nb  Nb3  1  0.68230  0.25000  0.99729  1
 Nb  Nb4  1  0.31770  0.75000  0.00271  1
 Se  Se1  1  0.27321  0.25000  0.48664  1
 Se  Se2  1  0.72679  0.75000  0.51336  1
 Se  Se3  1  0.02768  0.25000  0.84250  1
 Se  Se4  1  0.97232  0.75000  0.15750  1
 Se  Se5  1  0.52308  0.75000  0.79636  1
 Se  Se6  1  0.47692  0.25000  0.20364  1
