CIF file written using JARVIS-Tools package.
data_TlCr5S8
_symmetry_space_group_name_H-M  'C2/m'
_cell_length_a       3.48336
_cell_length_b       8.64044
_cell_length_c       9.13138
_cell_angle_alpha    104.755
_cell_angle_beta     100.996
_cell_angle_gamma    90

_symmetry_Int_Tables_number  12
_chemical_formula_structural  TlCr5S8
_chemical_formula_sum  TlCr5S8
_cell_volume  260.5487982825385
_cell_formula_units_Z  1
loop_
  _symmetry_equiv_pos_site_id
 _symmetry_equiv_pos_as_xyz
 1  'x, y, z'
loop_
 _atom_site_type_symbol
 _atom_site_label
 _atom_site_symmetry_multiplicity
 _atom_site_fract_x
 _atom_site_fract_y
 _atom_site_fract_z
 _atom_site_fract_occupancy
 Cr  Cr1  1  0.50000  0.50000  0.00000  1
 Cr  Cr2  1  0.20375  0.83523  0.40749  1
 Cr  Cr3  1  0.79625  0.16477  0.59251  1
 Cr  Cr4  1  0.84196  0.52865  0.68393  1
 Cr  Cr5  1  0.15804  0.47135  0.31607  1
 S  S1  1  0.32930  0.01084  0.65857  1
 S  S2  1  0.67070  0.98916  0.34143  1
 S  S3  1  0.73766  0.65626  0.47532  1
 S  S4  1  0.26234  0.34374  0.52468  1
 S  S5  1  0.41522  0.67511  0.83044  1
 S  S6  1  0.58478  0.32489  0.16956  1
 S  S7  1  0.07645  0.65030  0.15289  1
 S  S8  1  0.92355  0.34970  0.84711  1
 Tl  Tl1  1  0.00000  0.00000  0.00000  1
