CIF file written using JARVIS-Tools package.
data_UMoC2
_symmetry_space_group_name_H-M  'Pnma'
_cell_length_a       3.23455
_cell_length_b       5.64337
_cell_length_c       11.0666
_cell_angle_alpha    90
_cell_angle_beta     90
_cell_angle_gamma    90

_symmetry_Int_Tables_number  62
_chemical_formula_structural  UMoC2
_chemical_formula_sum  U4Mo4C8
_cell_volume  202.00798716138306
_cell_formula_units_Z  4
loop_
  _symmetry_equiv_pos_site_id
 _symmetry_equiv_pos_as_xyz
 1  'x, y, z'
loop_
 _atom_site_type_symbol
 _atom_site_label
 _atom_site_symmetry_multiplicity
 _atom_site_fract_x
 _atom_site_fract_y
 _atom_site_fract_z
 _atom_site_fract_occupancy
 C  C1  1  0.25000  0.25083  0.50699  1
 C  C2  1  0.75000  0.74917  0.49301  1
 C  C3  1  0.25000  0.75083  0.99301  1
 C  C4  1  0.75000  0.24917  0.00699  1
 C  C5  1  0.25000  0.66177  0.25560  1
 C  C6  1  0.75000  0.83823  0.75560  1
 C  C7  1  0.25000  0.16177  0.24440  1
 C  C8  1  0.75000  0.33823  0.74440  1
 Mo  Mo1  1  0.75000  0.57941  0.89912  1
 Mo  Mo2  1  0.75000  0.07941  0.60088  1
 Mo  Mo3  1  0.25000  0.42059  0.10088  1
 Mo  Mo4  1  0.25000  0.92059  0.39912  1
 U  U1  1  0.25000  0.58053  0.64227  1
 U  U2  1  0.75000  0.41947  0.35773  1
 U  U3  1  0.25000  0.08053  0.85773  1
 U  U4  1  0.75000  0.91947  0.14227  1
