CIF file written using JARVIS-Tools package.
data_Cr2Se3
_symmetry_space_group_name_H-M  'R-3'
_cell_length_a       6.88272
_cell_length_b       6.88272
_cell_length_c       6.88272
_cell_angle_alpha    54.7291
_cell_angle_beta     54.729
_cell_angle_gamma    54.7291

_symmetry_Int_Tables_number  148
_chemical_formula_structural  Cr2Se3
_chemical_formula_sum  Cr4Se6
_cell_volume  202.24461877462505
_cell_formula_units_Z  2
loop_
  _symmetry_equiv_pos_site_id
 _symmetry_equiv_pos_as_xyz
 1  'x, y, z'
loop_
 _atom_site_type_symbol
 _atom_site_label
 _atom_site_symmetry_multiplicity
 _atom_site_fract_x
 _atom_site_fract_y
 _atom_site_fract_z
 _atom_site_fract_occupancy
 Cr  Cr1  1  0.00000  0.00000  0.00000  1
 Cr  Cr2  1  0.50000  0.50000  0.50000  1
 Cr  Cr3  1  0.32479  0.32479  0.32479  1
 Cr  Cr4  1  0.67521  0.67521  0.67521  1
 Se  Se1  1  0.59301  0.90748  0.25722  1
 Se  Se2  1  0.25722  0.59301  0.90748  1
 Se  Se3  1  0.90748  0.25722  0.59301  1
 Se  Se4  1  0.40699  0.09252  0.74278  1
 Se  Se5  1  0.74278  0.40699  0.09252  1
 Se  Se6  1  0.09252  0.74278  0.40699  1
