CIF file written using JARVIS-Tools package.
data_Li2MnSiO4
_symmetry_space_group_name_H-M  'Pmn2_1'
_cell_length_a       4.99511
_cell_length_b       5.35546
_cell_length_c       6.31891
_cell_angle_alpha    90
_cell_angle_beta     90
_cell_angle_gamma    90

_symmetry_Int_Tables_number  31
_chemical_formula_structural  Li2MnSiO4
_chemical_formula_sum  Li4Mn2Si2O8
_cell_volume  169.03781676091185
_cell_formula_units_Z  2
loop_
  _symmetry_equiv_pos_site_id
 _symmetry_equiv_pos_as_xyz
 1  'x, y, z'
loop_
 _atom_site_type_symbol
 _atom_site_label
 _atom_site_symmetry_multiplicity
 _atom_site_fract_x
 _atom_site_fract_y
 _atom_site_fract_z
 _atom_site_fract_occupancy
 Li  Li1  1  0.55640  0.33037  0.25058  1
 Li  Li2  1  0.55640  0.33037  0.74942  1
 Li  Li3  1  0.05640  0.66963  0.75058  1
 Li  Li4  1  0.05640  0.66963  0.24942  1
 Mn  Mn1  1  0.55851  0.82684  0.00000  1
 Mn  Mn2  1  0.05851  0.17316  0.50000  1
 O  O1  1  0.71868  0.18289  0.00000  1
 O  O2  1  0.16337  0.32186  0.21372  1
 O  O3  1  0.66337  0.67814  0.71372  1
 O  O4  1  0.21868  0.81711  0.50000  1
 O  O5  1  0.14835  0.88121  0.00000  1
 O  O6  1  0.64835  0.11879  0.50000  1
 O  O7  1  0.66337  0.67814  0.28628  1
 O  O8  1  0.16337  0.32186  0.78628  1
 Si  Si1  1  0.04996  0.17768  0.00000  1
 Si  Si2  1  0.54996  0.82232  0.50000  1
