CIF file written using JARVIS-Tools package.
data_TbAl4Ni
_symmetry_space_group_name_H-M  'Cmcm'
_cell_length_a       4.0781
_cell_length_b       6.63505
_cell_length_c       8.00837
_cell_angle_alpha    90
_cell_angle_beta     104.751
_cell_angle_gamma    90

_symmetry_Int_Tables_number  63
_chemical_formula_structural  TbAl4Ni
_chemical_formula_sum  Tb2Al8Ni2
_cell_volume  209.5519322788539
_cell_formula_units_Z  2
loop_
  _symmetry_equiv_pos_site_id
 _symmetry_equiv_pos_as_xyz
 1  'x, y, z'
loop_
 _atom_site_type_symbol
 _atom_site_label
 _atom_site_symmetry_multiplicity
 _atom_site_fract_x
 _atom_site_fract_y
 _atom_site_fract_z
 _atom_site_fract_occupancy
 Al  Al1  1  0.68910  0.44784  0.37819  1
 Al  Al2  1  0.31090  0.55216  0.62181  1
 Al  Al3  1  0.31090  0.94784  0.62181  1
 Al  Al4  1  0.68910  0.05216  0.37819  1
 Al  Al5  1  0.50000  0.00000  0.00000  1
 Al  Al6  1  0.50000  0.50000  0.00000  1
 Al  Al7  1  0.07652  0.25000  0.15305  1
 Al  Al8  1  0.92348  0.75000  0.84695  1
 Ni  Ni1  1  0.77388  0.75000  0.54776  1
 Ni  Ni2  1  0.22612  0.25000  0.45224  1
 Tb  Tb1  1  0.11654  0.75000  0.23307  1
 Tb  Tb2  1  0.88346  0.25000  0.76693  1
