CIF file written using JARVIS-Tools package.
data_MgNi2O4
_symmetry_space_group_name_H-M  'Cmcm'
_cell_length_a       2.89219
_cell_length_b       4.90834
_cell_length_c       9.29564
_cell_angle_alpha    90
_cell_angle_beta     90
_cell_angle_gamma    107.135

_symmetry_Int_Tables_number  63
_chemical_formula_structural  MgNi2O4
_chemical_formula_sum  Mg2Ni4O8
_cell_volume  126.10245537876014
_cell_formula_units_Z  2
loop_
  _symmetry_equiv_pos_site_id
 _symmetry_equiv_pos_as_xyz
 1  'x, y, z'
loop_
 _atom_site_type_symbol
 _atom_site_label
 _atom_site_symmetry_multiplicity
 _atom_site_fract_x
 _atom_site_fract_y
 _atom_site_fract_z
 _atom_site_fract_occupancy
 Mg  Mg1  1  0.39213  0.78426  0.75000  1
 Mg  Mg2  1  0.60787  0.21574  0.25000  1
 Ni  Ni1  1  0.86554  0.73108  0.07059  1
 Ni  Ni2  1  0.13446  0.26892  0.92941  1
 Ni  Ni3  1  0.86554  0.73108  0.42941  1
 Ni  Ni4  1  0.13446  0.26892  0.57059  1
 O  O1  1  0.22529  0.45059  0.38787  1
 O  O2  1  0.77471  0.54941  0.61213  1
 O  O3  1  0.77471  0.54941  0.88787  1
 O  O4  1  0.22529  0.45059  0.11213  1
 O  O5  1  0.95725  0.91451  0.25000  1
 O  O6  1  0.04275  0.08549  0.75000  1
 O  O7  1  0.50000  0.00000  0.00000  1
 O  O8  1  0.50000  0.00000  0.50000  1
