CIF file written using JARVIS-Tools package.
data_Dy4CdRh
_symmetry_space_group_name_H-M  'F-43m'
_cell_length_a       9.53869
_cell_length_b       9.53869
_cell_length_c       9.53869
_cell_angle_alpha    60
_cell_angle_beta     60
_cell_angle_gamma    60

_symmetry_Int_Tables_number  216
_chemical_formula_structural  Dy4CdRh
_chemical_formula_sum  Dy6Cd4Rh4
_cell_volume  613.6937339628219
_cell_formula_units_Z  4
loop_
  _symmetry_equiv_pos_site_id
 _symmetry_equiv_pos_as_xyz
 1  'x, y, z'
loop_
 _atom_site_type_symbol
 _atom_site_label
 _atom_site_symmetry_multiplicity
 _atom_site_fract_x
 _atom_site_fract_y
 _atom_site_fract_z
 _atom_site_fract_occupancy
 Cd  Cd1  1  0.58178  0.58178  0.58178  1
 Cd  Cd2  1  0.58178  0.58178  0.25467  1
 Cd  Cd3  1  0.25467  0.58178  0.58178  1
 Cd  Cd4  1  0.58178  0.25467  0.58178  1
 Dy  Dy1  1  0.93589  0.56411  0.56411  1
 Dy  Dy2  1  0.35015  0.94954  0.35015  1
 Dy  Dy3  1  0.35015  0.35015  0.35015  1
 Dy  Dy4  1  0.81074  0.81074  0.18926  1
 Dy  Dy5  1  0.56411  0.56411  0.93589  1
 Dy  Dy6  1  0.81074  0.18926  0.18926  1
 Dy  Dy7  1  0.56411  0.93589  0.56411  1
 Dy  Dy8  1  0.18926  0.18926  0.81074  1
 Dy  Dy9  1  0.18926  0.81074  0.18926  1
 Dy  Dy10  1  0.94954  0.35015  0.35015  1
 Dy  Dy11  1  0.18926  0.81074  0.81074  1
 Dy  Dy12  1  0.35015  0.35015  0.94954  1
 Dy  Dy13  1  0.81074  0.18926  0.81074  1
 Dy  Dy14  1  0.56411  0.93589  0.93589  1
 Dy  Dy15  1  0.93589  0.56411  0.93589  1
 Dy  Dy16  1  0.93589  0.93589  0.56411  1
 Rh  Rh1  1  0.14256  0.57233  0.14256  1
 Rh  Rh2  1  0.57233  0.14256  0.14256  1
 Rh  Rh3  1  0.14256  0.14256  0.57233  1
 Rh  Rh4  1  0.14256  0.14256  0.14256  1
