CIF file written using JARVIS-Tools package.
data_Er5Mg24
_symmetry_space_group_name_H-M  'I-43m'
_cell_length_a       9.69054
_cell_length_b       9.69054
_cell_length_c       9.69054
_cell_angle_alpha    109.471
_cell_angle_beta     109.471
_cell_angle_gamma    109.471

_symmetry_Int_Tables_number  217
_chemical_formula_structural  Er5Mg24
_chemical_formula_sum  Er5Mg24
_cell_volume  700.5223319005353
_cell_formula_units_Z  1
loop_
  _symmetry_equiv_pos_site_id
 _symmetry_equiv_pos_as_xyz
 1  'x, y, z'
loop_
 _atom_site_type_symbol
 _atom_site_label
 _atom_site_symmetry_multiplicity
 _atom_site_fract_x
 _atom_site_fract_y
 _atom_site_fract_z
 _atom_site_fract_occupancy
 Er  Er1  1  0.00000  0.00000  0.00000  1
 Er  Er2  1  0.37253  0.00000  0.00000  1
 Er  Er3  1  -0.00000  0.37253  -0.00000  1
 Er  Er4  1  0.00000  0.00000  0.37253  1
 Er  Er5  1  0.62747  0.62747  0.62747  1
 Mg  Mg1  1  0.37109  0.18036  0.37109  1
 Mg  Mg2  1  0.18036  0.37109  0.37109  1
 Mg  Mg3  1  -0.00000  0.62891  0.80927  1
 Mg  Mg4  1  0.62891  0.00000  0.80927  1
 Mg  Mg5  1  0.38893  0.38893  0.71145  1
 Mg  Mg6  1  0.61107  0.32252  0.00000  1
 Mg  Mg7  1  0.32252  0.61107  -0.00000  1
 Mg  Mg8  1  0.00000  0.32252  0.61107  1
 Mg  Mg9  1  0.28855  0.67748  0.67748  1
 Mg  Mg10  1  0.67748  0.28855  0.67748  1
 Mg  Mg11  1  0.32252  -0.00000  0.61107  1
 Mg  Mg12  1  0.19073  0.19073  0.81964  1
 Mg  Mg13  1  0.00000  0.61107  0.32252  1
 Mg  Mg14  1  0.38893  0.71145  0.38893  1
 Mg  Mg15  1  0.67748  0.67748  0.28855  1
 Mg  Mg16  1  0.37109  0.37109  0.18036  1
 Mg  Mg17  1  0.62891  0.80927  -0.00000  1
 Mg  Mg18  1  0.80927  0.62891  -0.00000  1
 Mg  Mg19  1  -0.00000  0.80927  0.62891  1
 Mg  Mg20  1  0.81964  0.19073  0.19073  1
 Mg  Mg21  1  0.19073  0.81964  0.19073  1
 Mg  Mg22  1  0.80927  0.00000  0.62891  1
 Mg  Mg23  1  0.61107  -0.00000  0.32252  1
 Mg  Mg24  1  0.71145  0.38893  0.38893  1
