CIF file written using JARVIS-Tools package.
data_Pr3Al4Si6
_symmetry_space_group_name_H-M  'P-3m1'
_cell_length_a       4.22592
_cell_length_b       4.22592
_cell_length_c       18.127
_cell_angle_alpha    90
_cell_angle_beta     90
_cell_angle_gamma    120

_symmetry_Int_Tables_number  164
_chemical_formula_structural  Pr3Al4Si6
_chemical_formula_sum  Pr3Al4Si6
_cell_volume  280.34802136191547
_cell_formula_units_Z  1
loop_
  _symmetry_equiv_pos_site_id
 _symmetry_equiv_pos_as_xyz
 1  'x, y, z'
loop_
 _atom_site_type_symbol
 _atom_site_label
 _atom_site_symmetry_multiplicity
 _atom_site_fract_x
 _atom_site_fract_y
 _atom_site_fract_z
 _atom_site_fract_occupancy
 Al  Al1  1  0.33333  0.66667  0.75467  1
 Al  Al2  1  0.66667  0.33333  0.86108  1
 Al  Al3  1  0.33333  0.66667  0.13892  1
 Al  Al4  1  0.66667  0.33333  0.24533  1
 Pr  Pr1  1  0.00000  0.00000  0.61230  1
 Pr  Pr2  1  0.00000  0.00000  0.00000  1
 Pr  Pr3  1  0.00000  0.00000  0.38770  1
 Si  Si1  1  0.33333  0.66667  0.89638  1
 Si  Si2  1  0.66667  0.33333  0.49635  1
 Si  Si3  1  0.33333  0.66667  0.50365  1
 Si  Si4  1  0.33333  0.66667  0.28018  1
 Si  Si5  1  0.66667  0.33333  0.10362  1
 Si  Si6  1  0.66667  0.33333  0.71982  1
