CIF file written using JARVIS-Tools package.
data_AgMo6S8
_symmetry_space_group_name_H-M  'R-3'
_cell_length_a       6.51936
_cell_length_b       6.51936
_cell_length_c       6.51936
_cell_angle_alpha    92.1863
_cell_angle_beta     92.1863
_cell_angle_gamma    92.1863

_symmetry_Int_Tables_number  148
_chemical_formula_structural  AgMo6S8
_chemical_formula_sum  AgMo6S8
_cell_volume  276.4647180975561
_cell_formula_units_Z  1
loop_
  _symmetry_equiv_pos_site_id
 _symmetry_equiv_pos_as_xyz
 1  'x, y, z'
loop_
 _atom_site_type_symbol
 _atom_site_label
 _atom_site_symmetry_multiplicity
 _atom_site_fract_x
 _atom_site_fract_y
 _atom_site_fract_z
 _atom_site_fract_occupancy
 Ag  Ag1  1  0.00000  0.00000  0.00000  1
 Mo  Mo1  1  0.44773  0.59220  0.78130  1
 Mo  Mo2  1  0.59220  0.78130  0.44773  1
 Mo  Mo3  1  0.78130  0.44773  0.59220  1
 Mo  Mo4  1  0.21870  0.55227  0.40780  1
 Mo  Mo5  1  0.40780  0.21870  0.55227  1
 Mo  Mo6  1  0.55227  0.40780  0.21870  1
 S  S1  1  0.26857  0.86921  0.61755  1
 S  S2  1  0.61755  0.26857  0.86921  1
 S  S3  1  0.86921  0.61755  0.26857  1
 S  S4  1  0.13079  0.38245  0.73143  1
 S  S5  1  0.22203  0.22203  0.22203  1
 S  S6  1  0.38245  0.73143  0.13079  1
 S  S7  1  0.73143  0.13079  0.38245  1
 S  S8  1  0.77797  0.77797  0.77797  1
