CIF file written using JARVIS-Tools package.
data_Ho3Co
_symmetry_space_group_name_H-M  'Pnma'
_cell_length_a       6.14428
_cell_length_b       6.83475
_cell_length_c       9.272
_cell_angle_alpha    90
_cell_angle_beta     90
_cell_angle_gamma    90

_symmetry_Int_Tables_number  62
_chemical_formula_structural  Ho3Co
_chemical_formula_sum  Ho2Co4
_cell_volume  389.37447352013095
_cell_formula_units_Z  4
loop_
  _symmetry_equiv_pos_site_id
 _symmetry_equiv_pos_as_xyz
 1  'x, y, z'
loop_
 _atom_site_type_symbol
 _atom_site_label
 _atom_site_symmetry_multiplicity
 _atom_site_fract_x
 _atom_site_fract_y
 _atom_site_fract_z
 _atom_site_fract_occupancy
 Co  Co1  1  0.95031  0.38757  0.25000  1
 Co  Co2  1  0.45031  0.11243  0.75000  1
 Co  Co3  1  0.54969  0.88757  0.25000  1
 Co  Co4  1  0.04969  0.61243  0.75000  1
 Ho  Ho1  1  0.67604  0.17577  0.06683  1
 Ho  Ho2  1  0.35906  0.54108  0.25000  1
 Ho  Ho3  1  0.14094  0.04108  0.25000  1
 Ho  Ho4  1  0.82396  0.67577  0.43317  1
 Ho  Ho5  1  0.32396  0.82423  0.93317  1
 Ho  Ho6  1  0.17604  0.32423  0.56683  1
 Ho  Ho7  1  0.67604  0.17577  0.43317  1
 Ho  Ho8  1  0.17604  0.32423  0.93317  1
 Ho  Ho9  1  0.32396  0.82423  0.56683  1
 Ho  Ho10  1  0.85906  0.95892  0.75000  1
 Ho  Ho11  1  0.64094  0.45892  0.75000  1
 Ho  Ho12  1  0.82396  0.67577  0.06683  1
