CIF file written using JARVIS-Tools package.
data_Yb2In
_symmetry_space_group_name_H-M  'Pnma'
_cell_length_a       5.26465
_cell_length_b       6.94944
_cell_length_c       9.73833
_cell_angle_alpha    90
_cell_angle_beta     90
_cell_angle_gamma    90

_symmetry_Int_Tables_number  62
_chemical_formula_structural  Yb2In
_chemical_formula_sum  Yb8In4
_cell_volume  356.2898894242738
_cell_formula_units_Z  4
loop_
  _symmetry_equiv_pos_site_id
 _symmetry_equiv_pos_as_xyz
 1  'x, y, z'
loop_
 _atom_site_type_symbol
 _atom_site_label
 _atom_site_symmetry_multiplicity
 _atom_site_fract_x
 _atom_site_fract_y
 _atom_site_fract_z
 _atom_site_fract_occupancy
 In  In1  1  0.75000  0.21960  0.39415  1
 In  In2  1  0.25000  0.78040  0.60585  1
 In  In3  1  0.75000  0.71960  0.10585  1
 In  In4  1  0.25000  0.28040  0.89415  1
 Yb  Yb1  1  0.25000  0.96780  0.29128  1
 Yb  Yb2  1  0.75000  0.03220  0.70872  1
 Yb  Yb3  1  0.75000  0.68226  0.43067  1
 Yb  Yb4  1  0.25000  0.81774  0.93067  1
 Yb  Yb5  1  0.25000  0.46780  0.20872  1
 Yb  Yb6  1  0.75000  0.18226  0.06933  1
 Yb  Yb7  1  0.25000  0.31774  0.56933  1
 Yb  Yb8  1  0.75000  0.53220  0.79128  1
