CIF file written using JARVIS-Tools package.
data_Ti4NiBi2
_symmetry_space_group_name_H-M  'I4/mcm'
_cell_length_a       4.79266
_cell_length_b       7.92082
_cell_length_c       7.92082
_cell_angle_alpha    84.7485
_cell_angle_beta     72.3901
_cell_angle_gamma    72.39

_symmetry_Int_Tables_number  140
_chemical_formula_structural  Ti4NiBi2
_chemical_formula_sum  Ti8Ni2Bi4
_cell_volume  273.16669583275126
_cell_formula_units_Z  2
loop_
  _symmetry_equiv_pos_site_id
 _symmetry_equiv_pos_as_xyz
 1  'x, y, z'
loop_
 _atom_site_type_symbol
 _atom_site_label
 _atom_site_symmetry_multiplicity
 _atom_site_fract_x
 _atom_site_fract_y
 _atom_site_fract_z
 _atom_site_fract_occupancy
 Bi  Bi1  1  0.35922  0.78156  0.50000  1
 Bi  Bi2  1  0.64078  0.21844  0.50000  1
 Bi  Bi3  1  0.14078  0.50000  0.21844  1
 Bi  Bi4  1  0.85922  0.50000  0.78156  1
 Ni  Ni1  1  0.75000  0.00000  0.00000  1
 Ni  Ni2  1  0.25000  0.00000  0.00000  1
 Ti  Ti1  1  0.08076  0.11554  0.72293  1
 Ti  Ti2  1  0.80370  0.27707  0.11554  1
 Ti  Ti3  1  0.30370  0.11554  0.27707  1
 Ti  Ti4  1  0.58076  0.72293  0.11554  1
 Ti  Ti5  1  0.19630  0.72293  0.88446  1
 Ti  Ti6  1  0.91924  0.88446  0.27707  1
 Ti  Ti7  1  0.41924  0.27707  0.88446  1
 Ti  Ti8  1  0.69630  0.88446  0.72293  1
