CIF file written using JARVIS-Tools package.
data_Ti2Cu3
_symmetry_space_group_name_H-M  'P4/nmm'
_cell_length_a       3.15596
_cell_length_b       3.15596
_cell_length_c       13.9443
_cell_angle_alpha    90
_cell_angle_beta     90
_cell_angle_gamma    90

_symmetry_Int_Tables_number  129
_chemical_formula_structural  Ti2Cu3
_chemical_formula_sum  Ti4Cu6
_cell_volume  138.8859992967925
_cell_formula_units_Z  2
loop_
  _symmetry_equiv_pos_site_id
 _symmetry_equiv_pos_as_xyz
 1  'x, y, z'
loop_
 _atom_site_type_symbol
 _atom_site_label
 _atom_site_symmetry_multiplicity
 _atom_site_fract_x
 _atom_site_fract_y
 _atom_site_fract_z
 _atom_site_fract_occupancy
 Cu  Cu1  1  0.50000  0.50000  0.95476  1
 Cu  Cu2  1  0.50000  0.50000  0.75512  1
 Cu  Cu3  1  0.50000  0.50000  0.33739  1
 Cu  Cu4  1  0.00000  0.00000  0.24488  1
 Cu  Cu5  1  0.00000  0.00000  0.04524  1
 Cu  Cu6  1  0.00000  0.00000  0.66261  1
 Ti  Ti1  1  0.50000  0.50000  0.55987  1
 Ti  Ti2  1  0.50000  0.50000  0.14603  1
 Ti  Ti3  1  0.00000  0.00000  0.44013  1
 Ti  Ti4  1  0.00000  0.00000  0.85397  1
