CIF file written using JARVIS-Tools package.
data_Ta2O5
_symmetry_space_group_name_H-M  'Pmmm'
_cell_length_a       3.69826
_cell_length_b       6.49316
_cell_length_c       7.78141
_cell_angle_alpha    90
_cell_angle_beta     90
_cell_angle_gamma    90

_symmetry_Int_Tables_number  47
_chemical_formula_structural  Ta2O5
_chemical_formula_sum  Ta4O0
_cell_volume  186.85790463709424
_cell_formula_units_Z  2
loop_
  _symmetry_equiv_pos_site_id
 _symmetry_equiv_pos_as_xyz
 1  'x, y, z'
loop_
 _atom_site_type_symbol
 _atom_site_label
 _atom_site_symmetry_multiplicity
 _atom_site_fract_x
 _atom_site_fract_y
 _atom_site_fract_z
 _atom_site_fract_occupancy
 O  O1  1  0.50000  0.50000  0.75000  1
 O  O2  1  -0.00000  0.32032  0.00000  1
 O  O3  1  0.00000  0.00000  0.25000  1
 O  O4  1  0.50000  0.00000  0.00000  1
 O  O5  1  0.00000  0.00000  0.75000  1
 O  O6  1  0.00000  0.67968  0.00000  1
 O  O7  1  0.00000  0.32032  0.50000  1
 O  O8  1  0.50000  0.00000  0.50000  1
 O  O9  1  0.50000  0.50000  0.25000  1
 O  O10  1  -0.00000  0.67968  0.50000  1
 Ta  Ta1  1  0.50000  0.50000  0.50000  1
 Ta  Ta2  1  0.50000  0.50000  0.00000  1
 Ta  Ta3  1  0.00000  0.00000  0.00000  1
 Ta  Ta4  1  0.00000  0.00000  0.50000  1
