CIF file written using JARVIS-Tools package.
data_ErCrB4
_symmetry_space_group_name_H-M  'Pbam'
_cell_length_a       3.4367
_cell_length_b       5.8915
_cell_length_c       11.3822
_cell_angle_alpha    90
_cell_angle_beta     90
_cell_angle_gamma    90

_symmetry_Int_Tables_number  55
_chemical_formula_structural  ErCrB4
_chemical_formula_sum  Er4Cr4B6
_cell_volume  230.4591423158638
_cell_formula_units_Z  4
loop_
  _symmetry_equiv_pos_site_id
 _symmetry_equiv_pos_as_xyz
 1  'x, y, z'
loop_
 _atom_site_type_symbol
 _atom_site_label
 _atom_site_symmetry_multiplicity
 _atom_site_fract_x
 _atom_site_fract_y
 _atom_site_fract_z
 _atom_site_fract_occupancy
 B  B1  1  0.50000  0.86345  0.71762  1
 B  B2  1  0.50000  0.47505  0.55780  1
 B  B3  1  0.50000  0.52496  0.94220  1
 B  B4  1  0.50000  0.97505  0.44220  1
 B  B5  1  0.50000  0.88634  0.29712  1
 B  B6  1  0.50000  0.28137  0.43429  1
 B  B7  1  0.50000  0.71864  0.06571  1
 B  B8  1  0.50000  0.02496  0.05780  1
 B  B9  1  0.50000  0.21864  0.93429  1
 B  B10  1  0.50000  0.36345  0.28238  1
 B  B11  1  0.50000  0.63656  0.21762  1
 B  B12  1  0.50000  0.11367  0.20288  1
 B  B13  1  0.50000  0.13656  0.78238  1
 B  B14  1  0.50000  0.38634  0.70288  1
 B  B15  1  0.50000  0.61367  0.79712  1
 B  B16  1  0.50000  0.78137  0.56571  1
 Cr  Cr1  1  0.00000  0.37772  0.82946  1
 Cr  Cr2  1  0.00000  0.62229  0.67053  1
 Cr  Cr3  1  0.00000  0.87772  0.17054  1
 Cr  Cr4  1  0.00000  0.12229  0.32947  1
 Er  Er1  1  0.00000  0.37541  0.09939  1
 Er  Er2  1  0.00000  0.62460  0.40061  1
 Er  Er3  1  0.00000  0.87541  0.90061  1
 Er  Er4  1  0.00000  0.12460  0.59939  1
