CIF file written using JARVIS-Tools package.
data_KNdPdO3
_symmetry_space_group_name_H-M  'C2/m'
_cell_length_a       3.95962
_cell_length_b       6.95401
_cell_length_c       7.40231
_cell_angle_alpha    104.298
_cell_angle_beta     90
_cell_angle_gamma    106.541

_symmetry_Int_Tables_number  12
_chemical_formula_structural  KNdPdO3
_chemical_formula_sum  K2Nd2Pd2O6
_cell_volume  188.79382969290336
_cell_formula_units_Z  2
loop_
  _symmetry_equiv_pos_site_id
 _symmetry_equiv_pos_as_xyz
 1  'x, y, z'
loop_
 _atom_site_type_symbol
 _atom_site_label
 _atom_site_symmetry_multiplicity
 _atom_site_fract_x
 _atom_site_fract_y
 _atom_site_fract_z
 _atom_site_fract_occupancy
 K  K1  1  0.64397  0.28794  0.56484  1
 K  K2  1  0.35603  0.71206  0.43516  1
 Nd  Nd1  1  0.35040  0.70080  0.92031  1
 Nd  Nd2  1  0.64960  0.29920  0.07969  1
 O  O1  1  0.84754  0.69509  0.71694  1
 O  O2  1  0.49360  0.98721  0.19396  1
 O  O3  1  0.16834  0.33668  0.86428  1
 O  O4  1  0.15246  0.30491  0.28306  1
 O  O5  1  0.83166  0.66332  0.13572  1
 O  O6  1  0.50640  0.01279  0.80604  1
 Pd  Pd1  1  0.99351  0.98702  0.23060  1
 Pd  Pd2  1  0.00649  0.01298  0.76940  1
