CIF file written using JARVIS-Tools package.
data_Ni3Mo3N
_symmetry_space_group_name_H-M  'Fd-3m'
_cell_length_a       7.80134
_cell_length_b       7.80134
_cell_length_c       7.80134
_cell_angle_alpha    60
_cell_angle_beta     60
_cell_angle_gamma    60

_symmetry_Int_Tables_number  227
_chemical_formula_structural  Ni3Mo3N
_chemical_formula_sum  Ni2Mo2N4
_cell_volume  335.73195164897106
_cell_formula_units_Z  4
loop_
  _symmetry_equiv_pos_site_id
 _symmetry_equiv_pos_as_xyz
 1  'x, y, z'
loop_
 _atom_site_type_symbol
 _atom_site_label
 _atom_site_symmetry_multiplicity
 _atom_site_fract_x
 _atom_site_fract_y
 _atom_site_fract_z
 _atom_site_fract_occupancy
 Mo  Mo1  1  0.07884  0.67116  0.07884  1
 Mo  Mo2  1  0.67116  0.07884  0.07884  1
 Mo  Mo3  1  0.32884  0.32884  0.92116  1
 Mo  Mo4  1  0.32884  0.92116  0.32884  1
 Mo  Mo5  1  0.32884  0.92116  0.92116  1
 Mo  Mo6  1  0.92116  0.92116  0.32884  1
 Mo  Mo7  1  0.07884  0.67116  0.67116  1
 Mo  Mo8  1  0.67116  0.07884  0.67116  1
 Mo  Mo9  1  0.07884  0.07884  0.67116  1
 Mo  Mo10  1  0.92116  0.32884  0.32884  1
 Mo  Mo11  1  0.67116  0.67116  0.07884  1
 Mo  Mo12  1  0.92116  0.32884  0.92116  1
 N  N1  1  0.00000  0.00000  0.00000  1
 N  N2  1  0.50000  0.00000  -0.00000  1
 N  N3  1  0.00000  0.50000  -0.00000  1
 N  N4  1  0.00000  0.00000  0.50000  1
 Ni  Ni1  1  0.36967  0.71011  0.71011  1
 Ni  Ni2  1  0.71011  0.36967  0.71011  1
 Ni  Ni3  1  0.50000  0.50000  -0.00000  1
 Ni  Ni4  1  0.28989  0.28989  0.63033  1
 Ni  Ni5  1  0.71011  0.71011  0.36967  1
 Ni  Ni6  1  0.50000  0.00000  0.50000  1
 Ni  Ni7  1  0.28989  0.28989  0.28989  1
 Ni  Ni8  1  0.71011  0.71011  0.71011  1
 Ni  Ni9  1  0.28989  0.63033  0.28989  1
 Ni  Ni10  1  0.00000  0.50000  0.50000  1
 Ni  Ni11  1  0.50000  0.50000  0.50000  1
 Ni  Ni12  1  0.63033  0.28989  0.28989  1
