CIF file written using JARVIS-Tools package.
data_ReCl3
_symmetry_space_group_name_H-M  'R-3m'
_cell_length_a       8.95581
_cell_length_b       8.95581
_cell_length_c       8.95581
_cell_angle_alpha    70.3706
_cell_angle_beta     70.3706
_cell_angle_gamma    70.3706

_symmetry_Int_Tables_number  166
_chemical_formula_structural  ReCl3
_chemical_formula_sum  Re6Cl8
_cell_volume  616.7747101506696
_cell_formula_units_Z  6
loop_
  _symmetry_equiv_pos_site_id
 _symmetry_equiv_pos_as_xyz
 1  'x, y, z'
loop_
 _atom_site_type_symbol
 _atom_site_label
 _atom_site_symmetry_multiplicity
 _atom_site_fract_x
 _atom_site_fract_y
 _atom_site_fract_z
 _atom_site_fract_occupancy
 Cl  Cl1  1  0.73202  0.04871  0.73202  1
 Cl  Cl2  1  0.11930  0.58933  0.11930  1
 Cl  Cl3  1  0.58933  0.11930  0.11930  1
 Cl  Cl4  1  0.41067  0.88070  0.88070  1
 Cl  Cl5  1  0.88070  0.88070  0.41067  1
 Cl  Cl6  1  0.88070  0.41067  0.88070  1
 Cl  Cl7  1  0.50401  0.82131  0.50401  1
 Cl  Cl8  1  0.50401  0.50401  0.82131  1
 Cl  Cl9  1  0.82131  0.50401  0.50401  1
 Cl  Cl10  1  0.17869  0.49599  0.49599  1
 Cl  Cl11  1  0.11930  0.11930  0.58933  1
 Cl  Cl12  1  0.49599  0.49599  0.17869  1
 Cl  Cl13  1  0.73202  0.73202  0.04871  1
 Cl  Cl14  1  0.04871  0.73202  0.73202  1
 Cl  Cl15  1  0.95129  0.26798  0.26798  1
 Cl  Cl16  1  0.26798  0.95129  0.26798  1
 Cl  Cl17  1  0.26798  0.26798  0.95129  1
 Cl  Cl18  1  0.49599  0.17869  0.49599  1
 Re  Re1  1  0.64764  0.64764  0.88484  1
 Re  Re2  1  0.35236  0.35236  0.11516  1
 Re  Re3  1  0.35236  0.11516  0.35236  1
 Re  Re4  1  0.11516  0.35236  0.35236  1
 Re  Re5  1  0.88484  0.64764  0.64764  1
 Re  Re6  1  0.64764  0.88484  0.64764  1
