CIF file written using JARVIS-Tools package.
data_Pd7Se4
_symmetry_space_group_name_H-M  'P2_12_12'
_cell_length_a       5.38042
_cell_length_b       7.05908
_cell_length_c       10.3802
_cell_angle_alpha    90
_cell_angle_beta     90
_cell_angle_gamma    90

_symmetry_Int_Tables_number  18
_chemical_formula_structural  Pd7Se4
_chemical_formula_sum  Pd4Se8
_cell_volume  394.24860507692296
_cell_formula_units_Z  2
loop_
  _symmetry_equiv_pos_site_id
 _symmetry_equiv_pos_as_xyz
 1  'x, y, z'
loop_
 _atom_site_type_symbol
 _atom_site_label
 _atom_site_symmetry_multiplicity
 _atom_site_fract_x
 _atom_site_fract_y
 _atom_site_fract_z
 _atom_site_fract_occupancy
 Pd  Pd1  1  0.66329  0.87082  0.63299  1
 Pd  Pd2  1  0.00642  0.91346  0.22634  1
 Pd  Pd3  1  0.66329  0.12918  0.36701  1
 Pd  Pd4  1  0.33671  0.37082  0.86701  1
 Pd  Pd5  1  0.32405  0.00000  0.00000  1
 Pd  Pd6  1  0.67595  0.50000  0.50000  1
 Pd  Pd7  1  0.35213  0.81288  0.41769  1
 Pd  Pd8  1  0.33671  0.62918  0.13299  1
 Pd  Pd9  1  0.99358  0.41346  0.27366  1
 Pd  Pd10  1  0.99358  0.58654  0.72634  1
 Pd  Pd11  1  0.35213  0.18712  0.58231  1
 Pd  Pd12  1  0.64787  0.31288  0.08231  1
 Pd  Pd13  1  0.64787  0.68712  0.91769  1
 Pd  Pd14  1  0.00642  0.08654  0.77366  1
 Se  Se1  1  0.68401  0.32445  0.71984  1
 Se  Se2  1  0.31599  0.17555  0.21984  1
 Se  Se3  1  0.99837  0.00000  0.50000  1
 Se  Se4  1  0.00163  0.50000  0.00000  1
 Se  Se5  1  0.17226  0.50000  0.50000  1
 Se  Se6  1  0.82774  0.00000  0.00000  1
 Se  Se7  1  0.68401  0.67555  0.28016  1
 Se  Se8  1  0.31599  0.82445  0.78016  1
