CIF file written using JARVIS-Tools package.
data_Co2Ge3S3
_symmetry_space_group_name_H-M  'R-3'
_cell_length_a       8.07824
_cell_length_b       8.07824
_cell_length_c       8.07824
_cell_angle_alpha    89.9766
_cell_angle_beta     89.9766
_cell_angle_gamma    89.9766

_symmetry_Int_Tables_number  148
_chemical_formula_structural  Co2Ge3S3
_chemical_formula_sum  Co8Ge2S2
_cell_volume  527.1687325281558
_cell_formula_units_Z  4
loop_
  _symmetry_equiv_pos_site_id
 _symmetry_equiv_pos_as_xyz
 1  'x, y, z'
loop_
 _atom_site_type_symbol
 _atom_site_label
 _atom_site_symmetry_multiplicity
 _atom_site_fract_x
 _atom_site_fract_y
 _atom_site_fract_z
 _atom_site_fract_occupancy
 Co  Co1  1  0.25333  0.25811  0.75636  1
 Co  Co2  1  0.74542  0.74064  0.24239  1
 Co  Co3  1  0.25811  0.75636  0.25333  1
 Co  Co4  1  0.74064  0.24239  0.74542  1
 Co  Co5  1  0.75636  0.25333  0.25811  1
 Co  Co6  1  0.75488  0.75488  0.75488  1
 Co  Co7  1  0.24239  0.74542  0.74064  1
 Co  Co8  1  0.24387  0.24387  0.24387  1
 Ge  Ge1  1  0.99852  0.84910  0.33188  1
 Ge  Ge2  1  0.33188  0.99852  0.84910  1
 Ge  Ge3  1  0.66686  0.00023  0.14964  1
 Ge  Ge4  1  0.16745  0.50140  0.34950  1
 Ge  Ge5  1  0.34950  0.16745  0.50140  1
 Ge  Ge6  1  0.50140  0.34950  0.16745  1
 Ge  Ge7  1  0.83130  0.49735  0.64926  1
 Ge  Ge8  1  0.14964  0.66686  0.00023  1
 Ge  Ge9  1  0.84910  0.33188  0.99852  1
 Ge  Ge10  1  0.00023  0.14964  0.66686  1
 Ge  Ge11  1  0.64926  0.83130  0.49735  1
 Ge  Ge12  1  0.49735  0.64926  0.83130  1
 S  S1  1  0.35117  0.84475  0.50022  1
 S  S2  1  0.65378  0.99584  0.85168  1
 S  S3  1  0.50022  0.35117  0.84475  1
 S  S4  1  0.99584  0.85168  0.65378  1
 S  S5  1  0.14707  0.34497  0.00291  1
 S  S6  1  0.84475  0.50022  0.35117  1
 S  S7  1  0.64759  0.15400  0.49853  1
 S  S8  1  0.15400  0.49853  0.64759  1
 S  S9  1  0.00291  0.14707  0.34497  1
 S  S10  1  0.85168  0.65378  0.99584  1
 S  S11  1  0.49853  0.64759  0.15400  1
 S  S12  1  0.34497  0.00291  0.14707  1
