CIF file written using JARVIS-Tools package.
data_YB4Rh4
_symmetry_space_group_name_H-M  'P4_2/nmc'
_cell_length_a       5.33145
_cell_length_b       5.33145
_cell_length_c       7.47572
_cell_angle_alpha    90
_cell_angle_beta     90
_cell_angle_gamma    90

_symmetry_Int_Tables_number  137
_chemical_formula_structural  YB4Rh4
_chemical_formula_sum  Y2B8Rh8
_cell_volume  212.49267422542158
_cell_formula_units_Z  2
loop_
  _symmetry_equiv_pos_site_id
 _symmetry_equiv_pos_as_xyz
 1  'x, y, z'
loop_
 _atom_site_type_symbol
 _atom_site_label
 _atom_site_symmetry_multiplicity
 _atom_site_fract_x
 _atom_site_fract_y
 _atom_site_fract_z
 _atom_site_fract_occupancy
 B  B1  1  0.66812  0.00000  0.14874  1
 B  B2  1  0.16812  0.50000  0.35126  1
 B  B3  1  0.50000  0.16812  0.64874  1
 B  B4  1  0.50000  0.83188  0.64874  1
 B  B5  1  0.83188  0.50000  0.35126  1
 B  B6  1  0.33188  0.00000  0.14874  1
 B  B7  1  0.00000  0.33188  0.85126  1
 B  B8  1  0.00000  0.66812  0.85126  1
 Rh  Rh1  1  0.74852  0.50000  0.64550  1
 Rh  Rh2  1  0.50000  0.25148  0.35450  1
 Rh  Rh3  1  0.50000  0.74852  0.35450  1
 Rh  Rh4  1  0.00000  0.75148  0.14550  1
 Rh  Rh5  1  0.75148  0.00000  0.85450  1
 Rh  Rh6  1  0.00000  0.24852  0.14550  1
 Rh  Rh7  1  0.25148  0.50000  0.64550  1
 Rh  Rh8  1  0.24852  0.00000  0.85450  1
 Y  Y1  1  0.00000  0.00000  0.50000  1
 Y  Y2  1  0.50000  0.50000  0.00000  1
