CIF file written using JARVIS-Tools package.
data_LiNbFeO4
_symmetry_space_group_name_H-M  'P4_322'
_cell_length_a       5.89253
_cell_length_b       5.89253
_cell_length_c       8.48025
_cell_angle_alpha    90
_cell_angle_beta     90
_cell_angle_gamma    90

_symmetry_Int_Tables_number  95
_chemical_formula_structural  LiNbFeO4
_chemical_formula_sum  Li4Nb4Fe4O6
_cell_volume  294.45000620719355
_cell_formula_units_Z  4
loop_
  _symmetry_equiv_pos_site_id
 _symmetry_equiv_pos_as_xyz
 1  'x, y, z'
loop_
 _atom_site_type_symbol
 _atom_site_label
 _atom_site_symmetry_multiplicity
 _atom_site_fract_x
 _atom_site_fract_y
 _atom_site_fract_z
 _atom_site_fract_occupancy
 Fe  Fe1  1  0.50000  0.75076  0.50000  1
 Fe  Fe2  1  0.24924  0.50000  0.25000  1
 Fe  Fe3  1  0.50000  0.24924  0.00000  1
 Fe  Fe4  1  0.75076  0.50000  0.75000  1
 Li  Li1  1  0.00000  0.24150  0.00000  1
 Li  Li2  1  0.75850  0.00000  0.75000  1
 Li  Li3  1  0.24150  0.00000  0.25000  1
 Li  Li4  1  0.00000  0.75850  0.50000  1
 Nb  Nb1  1  0.25582  0.74418  0.87500  1
 Nb  Nb2  1  0.74418  0.25582  0.37500  1
 Nb  Nb3  1  0.74418  0.74418  0.12500  1
 Nb  Nb4  1  0.25582  0.25582  0.62500  1
 O  O1  1  0.26532  0.50946  0.48110  1
 O  O2  1  0.01553  0.26565  0.25509  1
 O  O3  1  0.98447  0.26565  0.74491  1
 O  O4  1  0.26565  0.01553  -0.00509  1
 O  O5  1  0.26565  0.98447  0.50509  1
 O  O6  1  0.26532  0.49054  0.01890  1
 O  O7  1  0.01553  0.73435  0.24491  1
 O  O8  1  0.73435  0.01553  0.00509  1
 O  O9  1  0.50946  0.26532  0.76890  1
 O  O10  1  0.50946  0.73468  0.73110  1
 O  O11  1  0.73468  0.50946  0.51890  1
 O  O12  1  0.73468  0.49054  0.98110  1
 O  O13  1  0.49054  0.26532  0.23110  1
 O  O14  1  0.73435  0.98447  0.49491  1
 O  O15  1  0.49054  0.73468  0.26890  1
 O  O16  1  0.98447  0.73435  0.75509  1
