CIF file written using JARVIS-Tools package.
data_Li6FeO6
_symmetry_space_group_name_H-M  'R-3'
_cell_length_a       5.38338
_cell_length_b       5.3815
_cell_length_c       5.38339
_cell_angle_alpha    63.2498
_cell_angle_beta     63.2606
_cell_angle_gamma    63.274

_symmetry_Int_Tables_number  148
_chemical_formula_structural  Li6FeO6
_chemical_formula_sum  Li6FeO6
_cell_volume  118.2495415979812
_cell_formula_units_Z  1
loop_
  _symmetry_equiv_pos_site_id
 _symmetry_equiv_pos_as_xyz
 1  'x, y, z'
loop_
 _atom_site_type_symbol
 _atom_site_label
 _atom_site_symmetry_multiplicity
 _atom_site_fract_x
 _atom_site_fract_y
 _atom_site_fract_z
 _atom_site_fract_occupancy
 Fe  Fe1  1  0.00000  0.00000  0.00000  1
 Li  Li1  1  0.71694  0.49328  0.07609  1
 Li  Li2  1  0.92390  0.28263  0.50648  1
 Li  Li3  1  0.50674  0.92399  0.28277  1
 Li  Li4  1  0.49326  0.07601  0.71723  1
 Li  Li5  1  0.07610  0.71737  0.49352  1
 Li  Li6  1  0.28306  0.50672  0.92391  1
 O  O1  1  0.90436  0.65170  0.20246  1
 O  O2  1  0.79718  0.09536  0.34826  1
 O  O3  1  0.34805  0.79722  0.09583  1
 O  O4  1  0.65195  0.20278  0.90417  1
 O  O5  1  0.20282  0.90464  0.65174  1
 O  O6  1  0.09564  0.34830  0.79754  1
