CIF file written using JARVIS-Tools package.
data_BaBPO5
_symmetry_space_group_name_H-M  'P3_221'
_cell_length_a       7.16356
_cell_length_b       7.16356
_cell_length_c       7.03939
_cell_angle_alpha    90
_cell_angle_beta     90
_cell_angle_gamma    120

_symmetry_Int_Tables_number  154
_chemical_formula_structural  BaBPO5
_chemical_formula_sum  Ba3B3P3O5
_cell_volume  312.8403521403311
_cell_formula_units_Z  3
loop_
  _symmetry_equiv_pos_site_id
 _symmetry_equiv_pos_as_xyz
 1  'x, y, z'
loop_
 _atom_site_type_symbol
 _atom_site_label
 _atom_site_symmetry_multiplicity
 _atom_site_fract_x
 _atom_site_fract_y
 _atom_site_fract_z
 _atom_site_fract_occupancy
 B  B1  1  0.09353  0.09353  0.00000  1
 B  B2  1  0.90647  0.00000  0.66667  1
 B  B3  1  0.00000  0.90647  0.33333  1
 Ba  Ba1  1  -0.00000  0.39493  0.33333  1
 Ba  Ba2  1  0.60507  0.60507  0.00000  1
 Ba  Ba3  1  0.39493  -0.00000  0.66667  1
 O  O1  1  0.04006  0.04006  0.50000  1
 O  O2  1  -0.00000  0.95994  0.83333  1
 O  O3  1  0.57158  0.42879  0.63352  1
 O  O4  1  0.14279  0.57121  0.69982  1
 O  O5  1  0.42842  0.85721  0.03315  1
 O  O6  1  0.42879  0.57158  0.36648  1
 O  O7  1  0.95994  -0.00000  0.16667  1
 O  O8  1  0.67747  0.81719  0.62961  1
 O  O9  1  0.32253  0.13972  0.03705  1
 O  O10  1  0.81719  0.67747  0.37039  1
 O  O11  1  0.18281  0.86028  0.29628  1
 O  O12  1  0.86028  0.18281  0.70372  1
 O  O13  1  0.57121  0.14279  0.30018  1
 O  O14  1  0.13972  0.32253  0.96295  1
 O  O15  1  0.85721  0.42842  0.96685  1
 P  P1  1  0.39038  -0.00000  0.16667  1
 P  P2  1  0.60962  0.60962  0.50000  1
 P  P3  1  -0.00000  0.39038  0.83333  1
