CIF file written using JARVIS-Tools package.
data_BaZn5
_symmetry_space_group_name_H-M  'Cmcm'
_cell_length_a       5.4011
_cell_length_b       6.85004
_cell_length_c       6.85004
_cell_angle_alpha    104.368
_cell_angle_beta     90
_cell_angle_gamma    90

_symmetry_Int_Tables_number  63
_chemical_formula_structural  BaZn5
_chemical_formula_sum  Ba2Zn0
_cell_volume  245.508654563402
_cell_formula_units_Z  2
loop_
  _symmetry_equiv_pos_site_id
 _symmetry_equiv_pos_as_xyz
 1  'x, y, z'
loop_
 _atom_site_type_symbol
 _atom_site_label
 _atom_site_symmetry_multiplicity
 _atom_site_fract_x
 _atom_site_fract_y
 _atom_site_fract_z
 _atom_site_fract_occupancy
 Ba  Ba1  1  0.75000  0.33274  0.33274  1
 Ba  Ba2  1  0.25000  0.66726  0.66726  1
 Zn  Zn1  1  0.50000  0.20522  0.79478  1
 Zn  Zn2  1  0.00000  0.79478  0.20522  1
 Zn  Zn3  1  0.25000  0.07966  0.07966  1
 Zn  Zn4  1  0.75000  0.92034  0.92034  1
 Zn  Zn5  1  0.25000  0.46494  0.08734  1
 Zn  Zn6  1  0.75000  0.53506  0.91266  1
 Zn  Zn7  1  0.25000  0.08734  0.46494  1
 Zn  Zn8  1  0.75000  0.91266  0.53506  1
 Zn  Zn9  1  0.00000  0.20522  0.79478  1
 Zn  Zn10  1  0.50000  0.79478  0.20522  1
