CIF file written using JARVIS-Tools package.
data_Be3Al2Si6O18
_symmetry_space_group_name_H-M  'P6/mcc'
_cell_length_a       9.30357
_cell_length_b       9.30357
_cell_length_c       9.27957
_cell_angle_alpha    90
_cell_angle_beta     90
_cell_angle_gamma    120

_symmetry_Int_Tables_number  192
_chemical_formula_structural  Be3Al2Si6O18
_chemical_formula_sum  Be6Al4Si2O36
_cell_volume  695.5968899806855
_cell_formula_units_Z  2
loop_
  _symmetry_equiv_pos_site_id
 _symmetry_equiv_pos_as_xyz
 1  'x, y, z'
loop_
 _atom_site_type_symbol
 _atom_site_label
 _atom_site_symmetry_multiplicity
 _atom_site_fract_x
 _atom_site_fract_y
 _atom_site_fract_z
 _atom_site_fract_occupancy
 Al  Al1  1  0.33333  0.66667  0.25000  1
 Al  Al2  1  0.66667  0.33333  0.25000  1
 Al  Al3  1  0.66667  0.33333  0.75000  1
 Al  Al4  1  0.33333  0.66667  0.75000  1
 Be  Be1  1  -0.00000  0.50000  0.75000  1
 Be  Be2  1  0.50000  -0.00000  0.75000  1
 Be  Be3  1  0.50000  -0.00000  0.25000  1
 Be  Be4  1  -0.00000  0.50000  0.25000  1
 Be  Be5  1  0.50000  0.50000  0.25000  1
 Be  Be6  1  0.50000  0.50000  0.75000  1
 O  O1  1  0.07378  0.31060  0.50000  1
 O  O2  1  0.50078  0.85477  0.35439  1
 O  O3  1  0.49922  0.35399  0.85439  1
 O  O4  1  0.50078  0.85477  0.64561  1
 O  O5  1  0.85477  0.50078  0.85439  1
 O  O6  1  0.31060  0.23683  0.50000  1
 O  O7  1  0.35399  0.49922  0.35439  1
 O  O8  1  0.23683  0.92622  0.50000  1
 O  O9  1  0.92622  0.68940  0.50000  1
 O  O10  1  0.68940  0.76317  0.50000  1
 O  O11  1  0.68940  0.92622  0.00000  1
 O  O12  1  0.76317  0.07378  0.50000  1
 O  O13  1  0.14523  0.64601  0.35439  1
 O  O14  1  0.23683  0.31060  0.00000  1
 O  O15  1  0.85477  0.50078  0.14561  1
 O  O16  1  0.31060  0.07378  0.00000  1
 O  O17  1  0.76317  0.68940  0.00000  1
 O  O18  1  0.07378  0.76317  0.00000  1
 O  O19  1  0.85477  0.35399  0.35439  1
 O  O20  1  0.49922  0.14523  0.35439  1
 O  O21  1  0.64601  0.50078  0.35439  1
 O  O22  1  0.92622  0.23683  0.00000  1
 O  O23  1  0.49922  0.35399  0.14561  1
 O  O24  1  0.35399  0.49922  0.64561  1
 O  O25  1  0.14523  0.49922  0.14561  1
 O  O26  1  0.50078  0.64601  0.14561  1
 O  O27  1  0.50078  0.64601  0.85439  1
 O  O28  1  0.14523  0.49922  0.85439  1
 O  O29  1  0.49922  0.14523  0.64561  1
 O  O30  1  0.85477  0.35399  0.64561  1
 O  O31  1  0.35399  0.85477  0.14561  1
 O  O32  1  0.64601  0.50078  0.64561  1
 O  O33  1  0.35399  0.85477  0.85439  1
 O  O34  1  0.64601  0.14523  0.14561  1
 O  O35  1  0.14523  0.64601  0.64561  1
 O  O36  1  0.64601  0.14523  0.85439  1
 Si  Si1  1  0.11580  0.72783  0.50000  1
 Si  Si2  1  0.61203  0.88420  0.50000  1
 Si  Si3  1  0.72783  0.61203  0.50000  1
 Si  Si4  1  0.27217  0.88420  0.00000  1
 Si  Si5  1  0.88420  0.61203  0.00000  1
 Si  Si6  1  0.61203  0.72783  0.00000  1
 Si  Si7  1  0.11580  0.38797  0.00000  1
 Si  Si8  1  0.38797  0.11580  0.50000  1
 Si  Si9  1  0.88420  0.27217  0.50000  1
 Si  Si10  1  0.38797  0.27217  0.00000  1
 Si  Si11  1  0.27217  0.38797  0.50000  1
 Si  Si12  1  0.72783  0.11580  0.00000  1
