CIF file written using JARVIS-Tools package.
data_BaLi2Mg2Si2
_symmetry_space_group_name_H-M  'R-3m'
_cell_length_a       9.12804
_cell_length_b       9.12803
_cell_length_c       9.12804
_cell_angle_alpha    28.9351
_cell_angle_beta     28.9351
_cell_angle_gamma    28.9351

_symmetry_Int_Tables_number  166
_chemical_formula_structural  BaLi2Mg2Si2
_chemical_formula_sum  BaLi2Mg2Si2
_cell_volume  157.4522930763404
_cell_formula_units_Z  1
loop_
  _symmetry_equiv_pos_site_id
 _symmetry_equiv_pos_as_xyz
 1  'x, y, z'
loop_
 _atom_site_type_symbol
 _atom_site_label
 _atom_site_symmetry_multiplicity
 _atom_site_fract_x
 _atom_site_fract_y
 _atom_site_fract_z
 _atom_site_fract_occupancy
 Ba  Ba1  1  0.00000  0.00000  0.00000  1
 Li  Li1  1  0.42957  0.42957  0.42957  1
 Li  Li2  1  0.57043  0.57043  0.57043  1
 Mg  Mg1  1  0.13578  0.13578  0.13578  1
 Mg  Mg2  1  0.86422  0.86422  0.86422  1
 Si  Si1  1  0.24203  0.24203  0.24203  1
 Si  Si2  1  0.75797  0.75797  0.75797  1
