CIF file written using JARVIS-Tools package.
data_ZnIn2Se4
_symmetry_space_group_name_H-M  'Fd-3m'
_cell_length_a       7.96854
_cell_length_b       7.96854
_cell_length_c       7.96854
_cell_angle_alpha    60
_cell_angle_beta     60
_cell_angle_gamma    60

_symmetry_Int_Tables_number  227
_chemical_formula_structural  ZnIn2Se4
_chemical_formula_sum  Zn2In4Se8
_cell_volume  357.7836027936226
_cell_formula_units_Z  2
loop_
  _symmetry_equiv_pos_site_id
 _symmetry_equiv_pos_as_xyz
 1  'x, y, z'
loop_
 _atom_site_type_symbol
 _atom_site_label
 _atom_site_symmetry_multiplicity
 _atom_site_fract_x
 _atom_site_fract_y
 _atom_site_fract_z
 _atom_site_fract_occupancy
 In  In1  1  0.00000  -0.00000  0.50000  1
 In  In2  1  0.00000  0.50000  -0.00000  1
 In  In3  1  0.50000  0.00000  -0.00000  1
 In  In4  1  0.00000  0.00000  0.00000  1
 Se  Se1  1  0.24579  0.24579  0.76263  1
 Se  Se2  1  0.24579  0.76263  0.24579  1
 Se  Se3  1  0.76263  0.24579  0.24579  1
 Se  Se4  1  0.24579  0.24579  0.24579  1
 Se  Se5  1  0.75421  0.75421  0.23737  1
 Se  Se6  1  0.75421  0.23737  0.75421  1
 Se  Se7  1  0.23737  0.75421  0.75421  1
 Se  Se8  1  0.75421  0.75421  0.75421  1
 Zn  Zn1  1  0.37500  0.37500  0.37500  1
 Zn  Zn2  1  0.62500  0.62500  0.62500  1
