CIF file written using JARVIS-Tools package.
data_Ba2Si
_symmetry_space_group_name_H-M  'Pnma'
_cell_length_a       5.38071
_cell_length_b       8.41571
_cell_length_c       10.1488
_cell_angle_alpha    90
_cell_angle_beta     90
_cell_angle_gamma    90

_symmetry_Int_Tables_number  62
_chemical_formula_structural  Ba2Si
_chemical_formula_sum  Ba8Si4
_cell_volume  459.56253319812464
_cell_formula_units_Z  4
loop_
  _symmetry_equiv_pos_site_id
 _symmetry_equiv_pos_as_xyz
 1  'x, y, z'
loop_
 _atom_site_type_symbol
 _atom_site_label
 _atom_site_symmetry_multiplicity
 _atom_site_fract_x
 _atom_site_fract_y
 _atom_site_fract_z
 _atom_site_fract_occupancy
 Ba  Ba1  1  0.75000  0.47863  0.67273  1
 Ba  Ba2  1  0.25000  0.52137  0.32727  1
 Ba  Ba3  1  0.75000  0.97863  0.82727  1
 Ba  Ba4  1  0.25000  0.02137  0.17273  1
 Ba  Ba5  1  0.25000  0.14691  0.58274  1
 Ba  Ba6  1  0.75000  0.85309  0.41726  1
 Ba  Ba7  1  0.25000  0.64691  0.91726  1
 Ba  Ba8  1  0.75000  0.35309  0.08274  1
 Si  Si1  1  0.25000  0.74824  0.60226  1
 Si  Si2  1  0.75000  0.25176  0.39774  1
 Si  Si3  1  0.25000  0.24824  0.89774  1
 Si  Si4  1  0.75000  0.75176  0.10226  1
