CIF file written using JARVIS-Tools package.
data_Cr2PO5
_symmetry_space_group_name_H-M  'I4_1/amd'
_cell_length_a       7.16206
_cell_length_b       5.37775
_cell_length_c       5.37775
_cell_angle_alpha    90.0053
_cell_angle_beta     67.9492
_cell_angle_gamma    67.9492

_symmetry_Int_Tables_number  141
_chemical_formula_structural  Cr2PO5
_chemical_formula_sum  Cr4P2O0
_cell_volume  175.51962242483415
_cell_formula_units_Z  2
loop_
  _symmetry_equiv_pos_site_id
 _symmetry_equiv_pos_as_xyz
 1  'x, y, z'
loop_
 _atom_site_type_symbol
 _atom_site_label
 _atom_site_symmetry_multiplicity
 _atom_site_fract_x
 _atom_site_fract_y
 _atom_site_fract_z
 _atom_site_fract_occupancy
 Cr  Cr1  1  0.50000  -0.00000  -0.00000  1
 Cr  Cr2  1  0.50000  0.50000  -0.00000  1
 Cr  Cr3  1  -0.00000  0.50000  0.00000  1
 Cr  Cr4  1  -0.00000  0.50000  0.50000  1
 O  O1  1  0.88789  0.29754  0.30607  1
 O  O2  1  0.61211  0.19393  0.20246  1
 O  O3  1  0.88801  0.81461  0.30600  1
 O  O4  1  0.61199  0.19400  0.68539  1
 O  O5  1  0.25000  0.37498  0.12502  1
 O  O6  1  0.75000  0.62502  0.87498  1
 O  O7  1  0.38801  0.80600  0.31461  1
 O  O8  1  0.11199  0.18539  0.69400  1
 O  O9  1  0.38789  0.80607  0.79754  1
 O  O10  1  0.11211  0.70246  0.69393  1
 P  P1  1  0.75000  0.12502  0.37498  1
 P  P2  1  0.25000  0.87498  0.62502  1
