CIF file written using JARVIS-Tools package.
data_CaGaAu
_symmetry_space_group_name_H-M  'Pnma'
_cell_length_a       4.56135
_cell_length_b       7.25751
_cell_length_c       7.77577
_cell_angle_alpha    90
_cell_angle_beta     90
_cell_angle_gamma    90

_symmetry_Int_Tables_number  62
_chemical_formula_structural  CaGaAu
_chemical_formula_sum  Ca4Ga4Au4
_cell_volume  257.40921308051156
_cell_formula_units_Z  4
loop_
  _symmetry_equiv_pos_site_id
 _symmetry_equiv_pos_as_xyz
 1  'x, y, z'
loop_
 _atom_site_type_symbol
 _atom_site_label
 _atom_site_symmetry_multiplicity
 _atom_site_fract_x
 _atom_site_fract_y
 _atom_site_fract_z
 _atom_site_fract_occupancy
 Au  Au1  1  0.25000  0.79038  0.90838  1
 Au  Au2  1  0.75000  0.20962  0.09162  1
 Au  Au3  1  0.25000  0.29038  0.59162  1
 Au  Au4  1  0.75000  0.70962  0.40838  1
 Ca  Ca1  1  0.75000  0.49427  0.79672  1
 Ca  Ca2  1  0.25000  0.00573  0.29672  1
 Ca  Ca3  1  0.75000  0.99427  0.70328  1
 Ca  Ca4  1  0.25000  0.50573  0.20328  1
 Ga  Ga1  1  0.25000  0.18528  0.91947  1
 Ga  Ga2  1  0.75000  0.31472  0.41947  1
 Ga  Ga3  1  0.25000  0.68528  0.58053  1
 Ga  Ga4  1  0.75000  0.81472  0.08053  1
