CIF file written using JARVIS-Tools package.
data_Y2ZnSe4
_symmetry_space_group_name_H-M  'Fd-3m'
_cell_length_a       8.11998
_cell_length_b       8.11998
_cell_length_c       8.11998
_cell_angle_alpha    60
_cell_angle_beta     60
_cell_angle_gamma    60

_symmetry_Int_Tables_number  227
_chemical_formula_structural  Y2ZnSe4
_chemical_formula_sum  Y4Zn2Se8
_cell_volume  378.5735145561619
_cell_formula_units_Z  2
loop_
  _symmetry_equiv_pos_site_id
 _symmetry_equiv_pos_as_xyz
 1  'x, y, z'
loop_
 _atom_site_type_symbol
 _atom_site_label
 _atom_site_symmetry_multiplicity
 _atom_site_fract_x
 _atom_site_fract_y
 _atom_site_fract_z
 _atom_site_fract_occupancy
 Se  Se1  1  0.74842  0.75475  0.24842  1
 Se  Se2  1  0.74842  0.24842  0.75475  1
 Se  Se3  1  0.74842  0.24842  0.24842  1
 Se  Se4  1  0.25475  0.24842  0.24842  1
 Se  Se5  1  0.25158  0.24525  0.75158  1
 Se  Se6  1  0.25158  0.75158  0.24525  1
 Se  Se7  1  0.25158  0.75158  0.75158  1
 Se  Se8  1  0.74525  0.75158  0.75158  1
 Y  Y1  1  0.50000  0.50000  0.00000  1
 Y  Y2  1  0.50000  0.00000  0.50000  1
 Y  Y3  1  0.50000  -0.00000  0.00000  1
 Y  Y4  1  0.00000  0.00000  0.00000  1
 Zn  Zn1  1  0.87500  0.37500  0.37500  1
 Zn  Zn2  1  0.12500  0.62500  0.62500  1
