CIF file written using JARVIS-Tools package.
data_DySCl
_symmetry_space_group_name_H-M  'P2_1/c'
_cell_length_a       6.58343
_cell_length_b       6.67605
_cell_length_c       6.76962
_cell_angle_alpha    90
_cell_angle_beta     100.342
_cell_angle_gamma    90

_symmetry_Int_Tables_number  14
_chemical_formula_structural  DySCl
_chemical_formula_sum  Dy4S4Cl4
_cell_volume  292.7005458901101
_cell_formula_units_Z  4
loop_
  _symmetry_equiv_pos_site_id
 _symmetry_equiv_pos_as_xyz
 1  'x, y, z'
loop_
 _atom_site_type_symbol
 _atom_site_label
 _atom_site_symmetry_multiplicity
 _atom_site_fract_x
 _atom_site_fract_y
 _atom_site_fract_z
 _atom_site_fract_occupancy
 Cl  Cl1  1  0.06734  0.34445  0.82866  1
 Cl  Cl2  1  0.93266  0.84445  0.67134  1
 Cl  Cl3  1  0.93266  0.65555  0.17134  1
 Cl  Cl4  1  0.06734  0.15555  0.32866  1
 Dy  Dy1  1  0.68888  0.54492  0.79353  1
 Dy  Dy2  1  0.31112  0.45508  0.20647  1
 Dy  Dy3  1  0.68888  0.95508  0.29353  1
 Dy  Dy4  1  0.31112  0.04492  0.70647  1
 S  S1  1  0.56602  0.24073  0.01101  1
 S  S2  1  0.56602  0.25927  0.51101  1
 S  S3  1  0.43398  0.75927  0.98899  1
 S  S4  1  0.43398  0.74073  0.48899  1
