CIF file written using JARVIS-Tools package.
data_NiSbS
_symmetry_space_group_name_H-M  'P2_13'
_cell_length_a       5.97947
_cell_length_b       5.97947
_cell_length_c       5.97947
_cell_angle_alpha    90
_cell_angle_beta     90
_cell_angle_gamma    90

_symmetry_Int_Tables_number  198
_chemical_formula_structural  NiSbS
_chemical_formula_sum  Ni4Sb4S4
_cell_volume  213.79066468015642
_cell_formula_units_Z  4
loop_
  _symmetry_equiv_pos_site_id
 _symmetry_equiv_pos_as_xyz
 1  'x, y, z'
loop_
 _atom_site_type_symbol
 _atom_site_label
 _atom_site_symmetry_multiplicity
 _atom_site_fract_x
 _atom_site_fract_y
 _atom_site_fract_z
 _atom_site_fract_occupancy
 Ni  Ni1  1  0.51807  0.48193  0.98193  1
 Ni  Ni2  1  0.48193  0.98193  0.51807  1
 Ni  Ni3  1  0.01807  0.01807  0.01807  1
 Ni  Ni4  1  0.98193  0.51807  0.48193  1
 S  S1  1  0.38052  0.11948  0.88052  1
 S  S2  1  0.88052  0.38052  0.11948  1
 S  S3  1  0.11948  0.88052  0.38052  1
 S  S4  1  0.61948  0.61948  0.61948  1
 Sb  Sb1  1  0.62856  0.87144  0.12856  1
 Sb  Sb2  1  0.12856  0.62856  0.87144  1
 Sb  Sb3  1  0.37144  0.37144  0.37144  1
 Sb  Sb4  1  0.87144  0.12856  0.62856  1
