CIF file written using JARVIS-Tools package.
data_Na3MnAsCO7
_symmetry_space_group_name_H-M  'P2_1/m'
_cell_length_a       5.17445
_cell_length_b       6.89366
_cell_length_c       9.21478
_cell_angle_alpha    90
_cell_angle_beta     89.6027
_cell_angle_gamma    90

_symmetry_Int_Tables_number  11
_chemical_formula_structural  Na3MnAsCO7
_chemical_formula_sum  Na6Mn2As2C2O4
_cell_volume  328.6921241320882
_cell_formula_units_Z  2
loop_
  _symmetry_equiv_pos_site_id
 _symmetry_equiv_pos_as_xyz
 1  'x, y, z'
loop_
 _atom_site_type_symbol
 _atom_site_label
 _atom_site_symmetry_multiplicity
 _atom_site_fract_x
 _atom_site_fract_y
 _atom_site_fract_z
 _atom_site_fract_occupancy
 As  As1  1  0.69440  0.25000  0.58801  1
 As  As2  1  0.30560  0.75000  0.41199  1
 C  C1  1  0.73547  0.75000  0.94362  1
 C  C2  1  0.26453  0.25000  0.05638  1
 Mn  Mn1  1  0.77703  0.75000  0.64600  1
 Mn  Mn2  1  0.22297  0.25000  0.35400  1
 Na  Na1  1  0.23974  0.75000  0.08123  1
 Na  Na2  1  0.24494  -0.00170  0.74976  1
 Na  Na3  1  0.24494  0.50170  0.74976  1
 Na  Na4  1  0.75506  0.49830  0.25024  1
 Na  Na5  1  0.75506  0.00170  0.25024  1
 Na  Na6  1  0.76026  0.25000  0.91877  1
 O  O1  1  0.22231  0.55303  0.30675  1
 O  O2  1  0.96160  0.75000  0.88125  1
 O  O3  1  0.03840  0.25000  0.11875  1
 O  O4  1  0.47083  0.25000  0.13605  1
 O  O5  1  0.22231  0.94697  0.30675  1
 O  O6  1  0.71640  0.75000  0.08405  1
 O  O7  1  0.52917  0.75000  0.86395  1
 O  O8  1  0.17394  0.75000  0.58345  1
 O  O9  1  0.36138  0.25000  0.56763  1
 O  O10  1  0.77769  0.44697  0.69325  1
 O  O11  1  0.77769  0.05303  0.69325  1
 O  O12  1  0.63862  0.75000  0.43237  1
 O  O13  1  0.82606  0.25000  0.41655  1
 O  O14  1  0.28360  0.25000  0.91595  1
