CIF file written using JARVIS-Tools package.
data_ZnSnO2
_symmetry_space_group_name_H-M  'C2/m'
_cell_length_a       3.3903
_cell_length_b       10.4001
_cell_length_c       8.13905
_cell_angle_alpha    93.9456
_cell_angle_beta     77.9792
_cell_angle_gamma    70.974

_symmetry_Int_Tables_number  12
_chemical_formula_structural  ZnSnO2
_chemical_formula_sum  Zn4Sn4O8
_cell_volume  262.43646220714464
_cell_formula_units_Z  4
loop_
  _symmetry_equiv_pos_site_id
 _symmetry_equiv_pos_as_xyz
 1  'x, y, z'
loop_
 _atom_site_type_symbol
 _atom_site_label
 _atom_site_symmetry_multiplicity
 _atom_site_fract_x
 _atom_site_fract_y
 _atom_site_fract_z
 _atom_site_fract_occupancy
 O  O1  1  0.79988  0.66013  0.56991  1
 O  O2  1  0.58533  0.27294  0.77365  1
 O  O3  1  0.41072  0.70696  0.25455  1
 O  O4  1  0.19613  0.31984  0.45829  1
 O  O5  1  0.29444  0.01575  0.86967  1
 O  O6  1  0.91569  0.26251  0.13377  1
 O  O7  1  0.70159  0.96415  0.15856  1
 O  O8  1  0.08036  0.71739  0.89443  1
 Sn  Sn1  1  0.79332  0.19395  0.51571  1
 Sn  Sn2  1  0.22929  0.40256  0.22648  1
 Sn  Sn3  1  0.76676  0.57736  0.80169  1
 Sn  Sn4  1  0.20271  0.78601  0.51248  1
 Zn  Zn1  1  0.11021  0.05743  0.15474  1
 Zn  Zn2  1  0.88578  0.92248  0.87351  1
 Zn  Zn3  1  0.90622  0.76032  0.15681  1
 Zn  Zn4  1  0.08984  0.21956  0.87138  1
