CIF file written using JARVIS-Tools package.
data_NaC3O3
_symmetry_space_group_name_H-M  'Fddd'
_cell_length_a       6.8794
_cell_length_b       6.87939
_cell_length_c       8.16925
_cell_angle_alpha    106.26
_cell_angle_beta     106.26
_cell_angle_gamma    109.573

_symmetry_Int_Tables_number  70
_chemical_formula_structural  NaC3O3
_chemical_formula_sum  Na4C2O2
_cell_volume  318.4482236336689
_cell_formula_units_Z  4
loop_
  _symmetry_equiv_pos_site_id
 _symmetry_equiv_pos_as_xyz
 1  'x, y, z'
loop_
 _atom_site_type_symbol
 _atom_site_label
 _atom_site_symmetry_multiplicity
 _atom_site_fract_x
 _atom_site_fract_y
 _atom_site_fract_z
 _atom_site_fract_occupancy
 C  C1  1  0.90692  0.66993  0.64719  1
 C  C2  1  0.97839  0.22839  0.45678  1
 C  C3  1  0.22839  0.97839  0.95678  1
 C  C4  1  0.75973  0.02274  0.35281  1
 C  C5  1  0.02161  0.77161  0.54322  1
 C  C6  1  0.02274  0.75973  0.85281  1
 C  C7  1  0.09308  0.33007  0.35281  1
 C  C8  1  0.97726  0.24027  0.14719  1
 C  C9  1  0.66993  0.90692  0.14719  1
 C  C10  1  0.77161  0.02161  0.04322  1
 C  C11  1  0.24027  0.97726  0.64719  1
 C  C12  1  0.33007  0.09308  0.85281  1
 Na  Na1  1  0.22898  0.77102  0.25000  1
 Na  Na2  1  0.77102  0.22898  0.75000  1
 Na  Na3  1  0.47898  0.52102  0.75000  1
 Na  Na4  1  0.52102  0.47898  0.25000  1
 O  O1  1  0.93365  0.68365  0.36730  1
 O  O2  1  0.50023  0.71662  0.06189  1
 O  O3  1  0.93834  0.65473  0.93811  1
 O  O4  1  0.68365  0.93365  0.86730  1
 O  O5  1  0.49977  0.28338  0.93811  1
 O  O6  1  0.65473  0.93834  0.43811  1
 O  O7  1  0.71662  0.50023  0.56189  1
 O  O8  1  0.28338  0.49977  0.43811  1
 O  O9  1  0.06635  0.31635  0.63270  1
 O  O10  1  0.34527  0.06166  0.56189  1
 O  O11  1  0.06166  0.34527  0.06189  1
 O  O12  1  0.31635  0.06635  0.13270  1
