CIF file written using JARVIS-Tools package.
data_HfTe5
_symmetry_space_group_name_H-M  'Cmcm'
_cell_length_a       4.01257
_cell_length_b       7.63624
_cell_length_c       13.8615
_cell_angle_alpha    90
_cell_angle_beta     90
_cell_angle_gamma    105.232

_symmetry_Int_Tables_number  63
_chemical_formula_structural  HfTe5
_chemical_formula_sum  Hf2Te0
_cell_volume  409.8084229612163
_cell_formula_units_Z  2
loop_
  _symmetry_equiv_pos_site_id
 _symmetry_equiv_pos_as_xyz
 1  'x, y, z'
loop_
 _atom_site_type_symbol
 _atom_site_label
 _atom_site_symmetry_multiplicity
 _atom_site_fract_x
 _atom_site_fract_y
 _atom_site_fract_z
 _atom_site_fract_occupancy
 Hf  Hf1  1  0.68567  0.37133  0.25000  1
 Hf  Hf2  1  0.31433  0.62867  0.75000  1
 Te  Te1  1  0.20909  0.41818  0.93424  1
 Te  Te2  1  0.79091  0.58182  0.06576  1
 Te  Te3  1  0.66397  0.32793  0.75000  1
 Te  Te4  1  0.33603  0.67207  0.25000  1
 Te  Te5  1  0.92768  0.85535  0.85089  1
 Te  Te6  1  0.07232  0.14465  0.14911  1
 Te  Te7  1  0.07232  0.14465  0.35089  1
 Te  Te8  1  0.92768  0.85535  0.64911  1
 Te  Te9  1  0.20909  0.41818  0.56576  1
 Te  Te10  1  0.79091  0.58182  0.43424  1
