CIF file written using JARVIS-Tools package.
data_Li4V3Cr3W2O16
_symmetry_space_group_name_H-M  'Cm'
_cell_length_a       5.86113
_cell_length_b       5.8587
_cell_length_c       9.5898
_cell_angle_alpha    89.741
_cell_angle_beta     89.998
_cell_angle_gamma    120.013

_symmetry_Int_Tables_number  8
_chemical_formula_structural  Li4V3Cr3W2O16
_chemical_formula_sum  Li4V3Cr3W2O6
_cell_volume  285.1393953558883
_cell_formula_units_Z  1
loop_
  _symmetry_equiv_pos_site_id
 _symmetry_equiv_pos_as_xyz
 1  'x, y, z'
loop_
 _atom_site_type_symbol
 _atom_site_label
 _atom_site_symmetry_multiplicity
 _atom_site_fract_x
 _atom_site_fract_y
 _atom_site_fract_z
 _atom_site_fract_occupancy
 Cr  Cr1  1  0.66186  0.83222  0.78567  1
 Cr  Cr2  1  0.83087  0.66175  0.28661  1
 Cr  Cr3  1  0.17034  0.83222  0.78567  1
 Li  Li1  1  0.33156  0.66315  0.09626  1
 Li  Li2  1  0.00175  0.00353  0.00733  1
 Li  Li3  1  0.99378  0.98759  0.50686  1
 Li  Li4  1  0.66410  0.32821  0.59993  1
 O  O1  1  0.17251  0.82827  0.40527  1
 O  O2  1  0.51659  0.03319  0.15068  1
 O  O3  1  0.33615  0.67233  0.89579  1
 O  O4  1  0.00116  0.00232  0.69035  1
 O  O5  1  0.00176  0.00353  0.19303  1
 O  O6  1  0.65574  0.82827  0.40527  1
 O  O7  1  0.47987  0.95975  0.66001  1
 O  O8  1  0.49387  0.52555  0.65497  1
 O  O9  1  0.16572  0.33148  0.40609  1
 O  O10  1  0.33987  0.17316  0.90555  1
 O  O11  1  0.96025  0.48317  0.15660  1
 O  O12  1  0.66710  0.33423  0.39769  1
 O  O13  1  0.03166  0.52554  0.65498  1
 O  O14  1  0.83232  0.66467  0.90691  1
 O  O15  1  0.52289  0.48317  0.15660  1
 O  O16  1  0.83326  0.17316  0.90555  1
 V  V1  1  0.82141  0.16574  0.28578  1
 V  V2  1  0.34431  0.16573  0.28578  1
 V  V3  1  0.17439  0.34879  0.78202  1
 W  W1  1  0.66729  0.33461  0.01021  1
 W  W2  1  0.32732  0.65467  0.51473  1
