CIF file written using JARVIS-Tools package.
data_AgPb3
_symmetry_space_group_name_H-M  'P6_3/mmc'
_cell_length_a       6.80687
_cell_length_b       6.80687
_cell_length_c       5.57571
_cell_angle_alpha    90
_cell_angle_beta     90
_cell_angle_gamma    120

_symmetry_Int_Tables_number  194
_chemical_formula_structural  AgPb3
_chemical_formula_sum  Ag2Pb6
_cell_volume  223.73034569145733
_cell_formula_units_Z  2
loop_
  _symmetry_equiv_pos_site_id
 _symmetry_equiv_pos_as_xyz
 1  'x, y, z'
loop_
 _atom_site_type_symbol
 _atom_site_label
 _atom_site_symmetry_multiplicity
 _atom_site_fract_x
 _atom_site_fract_y
 _atom_site_fract_z
 _atom_site_fract_occupancy
 Ag  Ag1  1  0.33333  0.66667  0.75000  1
 Ag  Ag2  1  0.66667  0.33333  0.25000  1
 Pb  Pb1  1  0.65808  0.82904  0.25000  1
 Pb  Pb2  1  0.17096  0.82904  0.25000  1
 Pb  Pb3  1  0.17096  0.34192  0.25000  1
 Pb  Pb4  1  0.34192  0.17096  0.75000  1
 Pb  Pb5  1  0.82904  0.17096  0.75000  1
 Pb  Pb6  1  0.82904  0.65808  0.75000  1
