CIF file written using JARVIS-Tools package.
data_Li4Mn3V2Ni3O16
_symmetry_space_group_name_H-M  'Cm'
_cell_length_a       5.72364
_cell_length_b       5.76921
_cell_length_c       9.31832
_cell_angle_alpha    90.6786
_cell_angle_beta     89.9996
_cell_angle_gamma    119.738

_symmetry_Int_Tables_number  8
_chemical_formula_structural  Li4Mn3V2Ni3O16
_chemical_formula_sum  Li4Mn3V2Ni3O6
_cell_volume  267.15152722382
_cell_formula_units_Z  1
loop_
  _symmetry_equiv_pos_site_id
 _symmetry_equiv_pos_as_xyz
 1  'x, y, z'
loop_
 _atom_site_type_symbol
 _atom_site_label
 _atom_site_symmetry_multiplicity
 _atom_site_fract_x
 _atom_site_fract_y
 _atom_site_fract_z
 _atom_site_fract_occupancy
 Li  Li1  1  0.33594  0.67190  0.10042  1
 Li  Li2  1  0.00202  0.00408  0.00879  1
 Li  Li3  1  0.99768  0.99538  0.50180  1
 Li  Li4  1  0.66793  0.33589  0.60149  1
 Mn  Mn1  1  0.16579  0.82484  0.78363  1
 Mn  Mn2  1  0.65903  0.82484  0.78362  1
 Mn  Mn3  1  0.82464  0.64930  0.28063  1
 Ni  Ni1  1  0.82983  0.17006  0.28739  1
 Ni  Ni2  1  0.16959  0.33920  0.78587  1
 Ni  Ni3  1  0.34021  0.17006  0.28739  1
 O  O1  1  0.65437  0.81596  0.40734  1
 O  O2  1  0.99489  0.98979  0.19775  1
 O  O3  1  0.99502  0.99005  0.69126  1
 O  O4  1  0.52286  0.04574  0.14728  1
 O  O5  1  0.48235  0.96471  0.66538  1
 O  O6  1  0.16157  0.81596  0.40734  1
 O  O7  1  0.34032  0.68068  0.89176  1
 O  O8  1  0.49120  0.53315  0.65940  1
 O  O9  1  0.34053  0.16566  0.90726  1
 O  O10  1  0.52972  0.49498  0.15445  1
 O  O11  1  0.96524  0.49497  0.15445  1
 O  O12  1  0.67072  0.34147  0.39340  1
 O  O13  1  0.04193  0.53315  0.65941  1
 O  O14  1  0.83593  0.67190  0.89882  1
 O  O15  1  0.17076  0.34153  0.41781  1
 O  O16  1  0.82510  0.16566  0.90726  1
 V  V1  1  0.65495  0.30993  0.01023  1
 V  V2  1  0.32957  0.65917  0.50052  1
