CIF file written using JARVIS-Tools package.
data_LuSeO3F
_symmetry_space_group_name_H-M  'P-1'
_cell_length_a       4.23863
_cell_length_b       6.4378
_cell_length_c       6.79146
_cell_angle_alpha    92.898
_cell_angle_beta     96.2135
_cell_angle_gamma    97.0261

_symmetry_Int_Tables_number  2
_chemical_formula_structural  LuSeO3F
_chemical_formula_sum  Lu2Se2O6F2
_cell_volume  182.46658895156085
_cell_formula_units_Z  2
loop_
  _symmetry_equiv_pos_site_id
 _symmetry_equiv_pos_as_xyz
 1  'x, y, z'
loop_
 _atom_site_type_symbol
 _atom_site_label
 _atom_site_symmetry_multiplicity
 _atom_site_fract_x
 _atom_site_fract_y
 _atom_site_fract_z
 _atom_site_fract_occupancy
 F  F1  1  0.95707  0.33951  0.25957  1
 F  F2  1  0.04293  0.66049  0.74043  1
 Lu  Lu1  1  0.45860  0.36878  0.24137  1
 Lu  Lu2  1  0.54140  0.63122  0.75863  1
 O  O1  1  0.63399  0.67446  0.08655  1
 O  O2  1  0.39517  0.01788  0.22189  1
 O  O3  1  0.49021  0.68237  0.43048  1
 O  O4  1  0.36601  0.32554  0.91345  1
 O  O5  1  0.60483  0.98212  0.77811  1
 O  O6  1  0.50979  0.31763  0.56952  1
 Se  Se1  1  0.68272  0.86419  0.28421  1
 Se  Se2  1  0.31728  0.13581  0.71579  1
