CIF file written using JARVIS-Tools package.
data_Sr5Si3
_symmetry_space_group_name_H-M  'I4/mcm'
_cell_length_a       8.05495
_cell_length_b       8.05495
_cell_length_c       9.72283
_cell_angle_alpha    114.471
_cell_angle_beta     114.471
_cell_angle_gamma    90

_symmetry_Int_Tables_number  140
_chemical_formula_structural  Sr5Si3
_chemical_formula_sum  Sr0Si6
_cell_volume  511.26318967329723
_cell_formula_units_Z  2
loop_
  _symmetry_equiv_pos_site_id
 _symmetry_equiv_pos_as_xyz
 1  'x, y, z'
loop_
 _atom_site_type_symbol
 _atom_site_label
 _atom_site_symmetry_multiplicity
 _atom_site_fract_x
 _atom_site_fract_y
 _atom_site_fract_z
 _atom_site_fract_occupancy
 Si  Si1  1  0.60863  0.10863  0.00000  1
 Si  Si2  1  0.89137  0.60863  -0.00000  1
 Si  Si3  1  0.10863  0.39137  0.00000  1
 Si  Si4  1  0.39137  0.89137  -0.00000  1
 Si  Si5  1  0.75000  0.75000  0.50000  1
 Si  Si6  1  0.25000  0.25000  0.50000  1
 Sr  Sr1  1  0.17846  0.03736  0.71582  1
 Sr  Sr2  1  0.03736  0.53736  0.71582  1
 Sr  Sr3  1  0.67846  0.17846  0.71582  1
 Sr  Sr4  1  0.96264  0.46264  0.28418  1
 Sr  Sr5  1  0.53736  0.67846  0.71582  1
 Sr  Sr6  1  0.82154  0.96264  0.28418  1
 Sr  Sr7  1  0.46264  0.32154  0.28418  1
 Sr  Sr8  1  0.32154  0.82154  0.28418  1
 Sr  Sr9  1  0.50000  0.50000  -0.00000  1
 Sr  Sr10  1  0.00000  0.00000  0.00000  1
