CIF file written using JARVIS-Tools package.
data_Te2MoWS2
_symmetry_space_group_name_H-M  'P3m1'
_cell_length_a       3.36809
_cell_length_b       3.36814
_cell_length_c       34.8116
_cell_angle_alpha    89.9953
_cell_angle_beta     90
_cell_angle_gamma    120

_symmetry_Int_Tables_number  156
_chemical_formula_structural  Te2MoWS2
_chemical_formula_sum  Te4Mo2W2S4
_cell_volume  342.0034743004365
_cell_formula_units_Z  2
loop_
  _symmetry_equiv_pos_site_id
 _symmetry_equiv_pos_as_xyz
 1  'x, y, z'
loop_
 _atom_site_type_symbol
 _atom_site_label
 _atom_site_symmetry_multiplicity
 _atom_site_fract_x
 _atom_site_fract_y
 _atom_site_fract_z
 _atom_site_fract_occupancy
 Mo  Mo1  1  0.33324  0.66647  0.08724  1
 Mo  Mo2  1  0.66664  0.33327  0.27934  1
 S  S1  1  0.33328  0.66656  0.32275  1
 S  S2  1  0.33341  0.66683  0.70844  1
 S  S3  1  0.33333  0.66666  0.23594  1
 S  S4  1  0.33344  0.66687  0.62119  1
 Te  Te1  1  0.66661  0.33322  0.03298  1
 Te  Te2  1  0.66674  0.33348  0.41675  1
 Te  Te3  1  0.66655  0.33309  0.14166  1
 Te  Te4  1  0.66667  0.33333  0.52615  1
 W  W1  1  0.33336  0.66671  0.47146  1
 W  W2  1  0.66675  0.33349  0.66484  1
