CIF file written using JARVIS-Tools package.
data_NiTePd
_symmetry_space_group_name_H-M  'Pnma'
_cell_length_a       3.828
_cell_length_b       6.34491
_cell_length_c       8.46853
_cell_angle_alpha    90
_cell_angle_beta     90
_cell_angle_gamma    90

_symmetry_Int_Tables_number  62
_chemical_formula_structural  NiTePd
_chemical_formula_sum  Ni4Te4Pd4
_cell_volume  205.68643698533245
_cell_formula_units_Z  4
loop_
  _symmetry_equiv_pos_site_id
 _symmetry_equiv_pos_as_xyz
 1  'x, y, z'
loop_
 _atom_site_type_symbol
 _atom_site_label
 _atom_site_symmetry_multiplicity
 _atom_site_fract_x
 _atom_site_fract_y
 _atom_site_fract_z
 _atom_site_fract_occupancy
 Ni  Ni1  1  0.75000  0.98881  0.39507  1
 Ni  Ni2  1  0.25000  0.48881  0.10493  1
 Ni  Ni3  1  0.75000  0.51119  0.89507  1
 Ni  Ni4  1  0.25000  0.01119  0.60493  1
 Pd  Pd1  1  0.75000  0.34724  0.58475  1
 Pd  Pd2  1  0.75000  0.15276  0.08475  1
 Pd  Pd3  1  0.25000  0.65276  0.41525  1
 Pd  Pd4  1  0.25000  0.84724  0.91525  1
 Te  Te1  1  0.75000  0.73890  0.15749  1
 Te  Te2  1  0.25000  0.26110  0.84251  1
 Te  Te3  1  0.75000  0.76110  0.65749  1
 Te  Te4  1  0.25000  0.23890  0.34251  1
