CIF file written using JARVIS-Tools package.
data_Na2VCSO7
_symmetry_space_group_name_H-M  'P2_1/m'
_cell_length_a       5.22563
_cell_length_b       6.6566
_cell_length_c       8.96038
_cell_angle_alpha    90
_cell_angle_beta     90.3323
_cell_angle_gamma    90

_symmetry_Int_Tables_number  11
_chemical_formula_structural  Na2VCSO7
_chemical_formula_sum  Na4V2C2S2O4
_cell_volume  311.68126391675503
_cell_formula_units_Z  2
loop_
  _symmetry_equiv_pos_site_id
 _symmetry_equiv_pos_as_xyz
 1  'x, y, z'
loop_
 _atom_site_type_symbol
 _atom_site_label
 _atom_site_symmetry_multiplicity
 _atom_site_fract_x
 _atom_site_fract_y
 _atom_site_fract_z
 _atom_site_fract_occupancy
 C  C1  1  0.29035  0.25000  0.07897  1
 C  C2  1  0.70965  0.75000  0.92103  1
 Na  Na1  1  0.77156  0.00057  0.21694  1
 Na  Na2  1  0.77156  0.49943  0.21694  1
 Na  Na3  1  0.22844  0.50057  0.78306  1
 Na  Na4  1  0.22844  0.99943  0.78306  1
 O  O1  1  0.67334  0.75000  0.05983  1
 O  O2  1  0.93760  0.75000  0.85976  1
 O  O3  1  0.47810  0.25000  0.17774  1
 O  O4  1  0.19517  0.92954  0.33284  1
 O  O5  1  0.19517  0.57046  0.33284  1
 O  O6  1  0.06240  0.25000  0.14024  1
 O  O7  1  0.56990  0.75000  0.42854  1
 O  O8  1  0.43010  0.25000  0.57146  1
 O  O9  1  0.80483  0.07046  0.66716  1
 O  O10  1  0.80483  0.42954  0.66716  1
 O  O11  1  0.82656  0.25000  0.43110  1
 O  O12  1  0.52190  0.75000  0.82226  1
 O  O13  1  0.17344  0.75000  0.56890  1
 O  O14  1  0.32666  0.25000  0.94017  1
 S  S1  1  0.71640  0.25000  0.58431  1
 S  S2  1  0.28360  0.75000  0.41569  1
 V  V1  1  0.77957  0.75000  0.64400  1
 V  V2  1  0.22043  0.25000  0.35600  1
