CIF file written using JARVIS-Tools package.
data_SiO2
_symmetry_space_group_name_H-M  'P3_221'
_cell_length_a       4.5705
_cell_length_b       4.5705
_cell_length_c       6.77349
_cell_angle_alpha    90
_cell_angle_beta     90
_cell_angle_gamma    120

_symmetry_Int_Tables_number  154
_chemical_formula_structural  SiO2
_chemical_formula_sum  Si3O6
_cell_volume  122.53794037894303
_cell_formula_units_Z  3
loop_
  _symmetry_equiv_pos_site_id
 _symmetry_equiv_pos_as_xyz
 1  'x, y, z'
loop_
 _atom_site_type_symbol
 _atom_site_label
 _atom_site_symmetry_multiplicity
 _atom_site_fract_x
 _atom_site_fract_y
 _atom_site_fract_z
 _atom_site_fract_occupancy
 O  O1  1  0.11901  0.46257  0.92102  1
 O  O2  1  0.53743  0.65645  0.58769  1
 O  O3  1  0.46257  0.11901  0.07898  1
 O  O4  1  0.34355  0.88099  0.25435  1
 O  O5  1  0.88099  0.34355  0.74565  1
 O  O6  1  0.65645  0.53743  0.41231  1
 Si  Si1  1  0.91515  -0.00000  0.66667  1
 Si  Si2  1  0.08485  0.08485  0.00000  1
 Si  Si3  1  -0.00000  0.91515  0.33333  1
