CIF file written using JARVIS-Tools package.
data_AlAg2
_symmetry_space_group_name_H-M  'Cmcm'
_cell_length_a       5.05822
_cell_length_b       5.05822
_cell_length_c       4.62809
_cell_angle_alpha    90
_cell_angle_beta     90
_cell_angle_gamma    121.402

_symmetry_Int_Tables_number  63
_chemical_formula_structural  AlAg2
_chemical_formula_sum  Al2Ag4
_cell_volume  101.06879501737733
_cell_formula_units_Z  2
loop_
  _symmetry_equiv_pos_site_id
 _symmetry_equiv_pos_as_xyz
 1  'x, y, z'
loop_
 _atom_site_type_symbol
 _atom_site_label
 _atom_site_symmetry_multiplicity
 _atom_site_fract_x
 _atom_site_fract_y
 _atom_site_fract_z
 _atom_site_fract_occupancy
 Ag  Ag1  1  0.68231  0.36083  0.00000  1
 Ag  Ag2  1  0.36083  0.68231  0.00000  1
 Ag  Ag3  1  0.30594  0.98446  0.50000  1
 Ag  Ag4  1  0.98446  0.30594  0.50000  1
 Al  Al1  1  0.01656  0.01656  0.00000  1
 Al  Al2  1  0.65024  0.65024  0.50000  1
