CIF file written using JARVIS-Tools package.
data_ZrS2O8
_symmetry_space_group_name_H-M  'Pnma'
_cell_length_a       5.48299
_cell_length_b       8.65467
_cell_length_c       10.9726
_cell_angle_alpha    90
_cell_angle_beta     90
_cell_angle_gamma    90

_symmetry_Int_Tables_number  62
_chemical_formula_structural  ZrS2O8
_chemical_formula_sum  Zr4S8O32
_cell_volume  520.68676550076
_cell_formula_units_Z  4
loop_
  _symmetry_equiv_pos_site_id
 _symmetry_equiv_pos_as_xyz
 1  'x, y, z'
loop_
 _atom_site_type_symbol
 _atom_site_label
 _atom_site_symmetry_multiplicity
 _atom_site_fract_x
 _atom_site_fract_y
 _atom_site_fract_z
 _atom_site_fract_occupancy
 O  O1  1  0.75000  0.48894  0.35673  1
 O  O2  1  0.47019  0.33330  0.51672  1
 O  O3  1  0.25000  0.73732  0.80919  1
 O  O4  1  0.53337  0.89589  0.66282  1
 O  O5  1  0.47019  0.83330  0.98328  1
 O  O6  1  0.96663  0.39589  0.83718  1
 O  O7  1  0.46663  0.60411  0.16282  1
 O  O8  1  0.02981  0.33330  0.51672  1
 O  O9  1  0.52981  0.66670  0.48328  1
 O  O10  1  0.53337  0.39589  0.83718  1
 O  O11  1  0.52981  0.16670  0.01672  1
 O  O12  1  0.75000  0.60783  0.74443  1
 O  O13  1  0.25000  0.39217  0.25557  1
 O  O14  1  0.75000  0.10783  0.75557  1
 O  O15  1  0.25000  0.89217  0.24443  1
 O  O16  1  0.75000  0.57151  0.96577  1
 O  O17  1  0.25000  0.42849  0.03423  1
 O  O18  1  0.75000  0.07151  0.53423  1
 O  O19  1  0.25000  0.92849  0.46577  1
 O  O20  1  0.97019  0.16670  0.01672  1
 O  O21  1  0.25000  0.51106  0.64327  1
 O  O22  1  0.02981  0.83330  0.98328  1
 O  O23  1  0.25000  0.01106  0.85673  1
 O  O24  1  0.75000  0.98894  0.14327  1
 O  O25  1  0.97019  0.66670  0.48328  1
 O  O26  1  0.75000  0.26268  0.19081  1
 O  O27  1  0.75000  0.76268  0.30919  1
 O  O28  1  0.46663  0.10411  0.33718  1
 O  O29  1  0.96663  0.89589  0.66282  1
 O  O30  1  0.03337  0.60411  0.16282  1
 O  O31  1  0.25000  0.23732  0.69081  1
 O  O32  1  0.03337  0.10411  0.33718  1
 S  S1  1  0.75000  0.64719  0.40810  1
 S  S2  1  0.25000  0.35281  0.59190  1
 S  S3  1  0.75000  0.14719  0.09190  1
 S  S4  1  0.75000  0.99996  0.65681  1
 S  S5  1  0.75000  0.49996  0.84319  1
 S  S6  1  0.25000  0.00004  0.34319  1
 S  S7  1  0.25000  0.50004  0.15681  1
 S  S8  1  0.25000  0.85281  0.90810  1
 Zr  Zr1  1  0.75000  0.74529  0.10462  1
 Zr  Zr2  1  0.25000  0.25471  0.89538  1
 Zr  Zr3  1  0.75000  0.24529  0.39538  1
 Zr  Zr4  1  0.25000  0.75471  0.60462  1
