CIF file written using JARVIS-Tools package.
data_TbAl7Au3
_symmetry_space_group_name_H-M  'R-3c'
_cell_length_a       8.44614
_cell_length_b       8.44614
_cell_length_c       8.44614
_cell_angle_alpha    57.4426
_cell_angle_beta     57.4426
_cell_angle_gamma    57.4425

_symmetry_Int_Tables_number  167
_chemical_formula_structural  TbAl7Au3
_chemical_formula_sum  Tb2Al4Au6
_cell_volume  400.98126564597237
_cell_formula_units_Z  2
loop_
  _symmetry_equiv_pos_site_id
 _symmetry_equiv_pos_as_xyz
 1  'x, y, z'
loop_
 _atom_site_type_symbol
 _atom_site_label
 _atom_site_symmetry_multiplicity
 _atom_site_fract_x
 _atom_site_fract_y
 _atom_site_fract_z
 _atom_site_fract_occupancy
 Al  Al1  1  0.85248  0.66827  0.06933  1
 Al  Al2  1  0.43067  0.83173  0.64752  1
 Al  Al3  1  0.83173  0.64752  0.43067  1
 Al  Al4  1  0.66827  0.06933  0.85248  1
 Al  Al5  1  0.06933  0.85248  0.66827  1
 Al  Al6  1  0.35248  0.56933  0.16827  1
 Al  Al7  1  0.56933  0.16827  0.35248  1
 Al  Al8  1  0.14752  0.33173  0.93067  1
 Al  Al9  1  0.75000  0.75000  0.75000  1
 Al  Al10  1  0.93067  0.14752  0.33173  1
 Al  Al11  1  0.33173  0.93067  0.14752  1
 Al  Al12  1  0.16827  0.35248  0.56933  1
 Al  Al13  1  0.64752  0.43067  0.83173  1
 Al  Al14  1  0.25000  0.25000  0.25000  1
 Au  Au1  1  0.75000  0.42646  0.07354  1
 Au  Au2  1  0.42646  0.07354  0.75000  1
 Au  Au3  1  0.07354  0.75000  0.42646  1
 Au  Au4  1  0.57354  0.92646  0.25000  1
 Au  Au5  1  0.92646  0.25000  0.57354  1
 Au  Au6  1  0.25000  0.57354  0.92646  1
 Tb  Tb1  1  0.50000  0.50000  0.50000  1
 Tb  Tb2  1  0.00000  0.00000  0.00000  1
