CIF file written using JARVIS-Tools package.
data_NbNiAs2
_symmetry_space_group_name_H-M  'Pnma'
_cell_length_a       3.5434
_cell_length_b       5.67679
_cell_length_c       12.6625
_cell_angle_alpha    90
_cell_angle_beta     90
_cell_angle_gamma    90

_symmetry_Int_Tables_number  62
_chemical_formula_structural  NbNiAs2
_chemical_formula_sum  Nb4Ni4As8
_cell_volume  254.70886049945088
_cell_formula_units_Z  4
loop_
  _symmetry_equiv_pos_site_id
 _symmetry_equiv_pos_as_xyz
 1  'x, y, z'
loop_
 _atom_site_type_symbol
 _atom_site_label
 _atom_site_symmetry_multiplicity
 _atom_site_fract_x
 _atom_site_fract_y
 _atom_site_fract_z
 _atom_site_fract_occupancy
 As  As1  1  0.75000  0.85172  0.69108  1
 As  As2  1  0.25000  0.14828  0.30892  1
 As  As3  1  0.75000  0.35172  0.80892  1
 As  As4  1  0.25000  0.64828  0.19108  1
 As  As5  1  0.75000  0.80105  0.96325  1
 As  As6  1  0.25000  0.19895  0.03675  1
 As  As7  1  0.75000  0.30105  0.53675  1
 As  As8  1  0.25000  0.69895  0.46325  1
 Nb  Nb1  1  0.75000  0.99205  0.17103  1
 Nb  Nb2  1  0.25000  0.00795  0.82897  1
 Nb  Nb3  1  0.75000  0.49205  0.32897  1
 Nb  Nb4  1  0.25000  0.50795  0.67103  1
 Ni  Ni1  1  0.75000  0.97840  0.41112  1
 Ni  Ni2  1  0.25000  0.02160  0.58888  1
 Ni  Ni3  1  0.75000  0.47840  0.08888  1
 Ni  Ni4  1  0.25000  0.52160  0.91112  1
