CIF file written using JARVIS-Tools package.
data_MoP4
_symmetry_space_group_name_H-M  'C2/c'
_cell_length_a       5.37253
_cell_length_b       5.8936
_cell_length_c       6.23423
_cell_angle_alpha    81.218
_cell_angle_beta     64.476
_cell_angle_gamma    69.2478

_symmetry_Int_Tables_number  15
_chemical_formula_structural  MoP4
_chemical_formula_sum  Mo2P8
_cell_volume  166.57612144000902
_cell_formula_units_Z  2
loop_
  _symmetry_equiv_pos_site_id
 _symmetry_equiv_pos_as_xyz
 1  'x, y, z'
loop_
 _atom_site_type_symbol
 _atom_site_label
 _atom_site_symmetry_multiplicity
 _atom_site_fract_x
 _atom_site_fract_y
 _atom_site_fract_z
 _atom_site_fract_occupancy
 Mo  Mo1  1  0.05938  0.25000  0.88124  1
 Mo  Mo2  1  0.94062  0.75000  0.11876  1
 P  P1  1  0.50033  0.31075  0.55489  1
 P  P2  1  0.94478  0.18925  0.55489  1
 P  P3  1  0.18569  0.31691  0.18684  1
 P  P4  1  0.62748  0.18309  0.18684  1
 P  P5  1  0.81431  0.68309  0.81316  1
 P  P6  1  0.37252  0.81691  0.81316  1
 P  P7  1  0.05522  0.81075  0.44511  1
 P  P8  1  0.49967  0.68925  0.44511  1
