CIF file written using JARVIS-Tools package.
data_ZrSb2
_symmetry_space_group_name_H-M  'Pnnm'
_cell_length_a       3.93919
_cell_length_b       10.0887
_cell_length_c       15.1395
_cell_angle_alpha    90
_cell_angle_beta     90
_cell_angle_gamma    90

_symmetry_Int_Tables_number  58
_chemical_formula_structural  ZrSb2
_chemical_formula_sum  Zr8Sb6
_cell_volume  601.662950545283
_cell_formula_units_Z  8
loop_
  _symmetry_equiv_pos_site_id
 _symmetry_equiv_pos_as_xyz
 1  'x, y, z'
loop_
 _atom_site_type_symbol
 _atom_site_label
 _atom_site_symmetry_multiplicity
 _atom_site_fract_x
 _atom_site_fract_y
 _atom_site_fract_z
 _atom_site_fract_occupancy
 Sb  Sb1  1  0.00000  0.26950  0.69860  1
 Sb  Sb2  1  0.00000  0.88268  0.94232  1
 Sb  Sb3  1  0.00000  0.11732  0.05768  1
 Sb  Sb4  1  0.50000  0.38268  0.55768  1
 Sb  Sb5  1  0.00000  0.48802  0.89677  1
 Sb  Sb6  1  0.00000  0.66033  0.65650  1
 Sb  Sb7  1  0.00000  0.33967  0.34350  1
 Sb  Sb8  1  0.50000  0.61732  0.44232  1
 Sb  Sb9  1  0.50000  0.83967  0.15650  1
 Sb  Sb10  1  0.50000  0.76950  0.80140  1
 Sb  Sb11  1  0.50000  0.23050  0.19860  1
 Sb  Sb12  1  0.00000  0.51198  0.10323  1
 Sb  Sb13  1  0.00000  0.73050  0.30140  1
 Sb  Sb14  1  0.50000  0.98802  0.60323  1
 Sb  Sb15  1  0.50000  0.01198  0.39677  1
 Sb  Sb16  1  0.50000  0.16033  0.84350  1
 Zr  Zr1  1  0.50000  0.52113  0.24941  1
 Zr  Zr2  1  0.50000  0.47887  0.75059  1
 Zr  Zr3  1  0.00000  0.02113  0.25059  1
 Zr  Zr4  1  0.00000  0.97887  0.74941  1
 Zr  Zr5  1  0.00000  0.83157  0.49323  1
 Zr  Zr6  1  0.00000  0.16843  0.50677  1
 Zr  Zr7  1  0.50000  0.33157  0.00677  1
 Zr  Zr8  1  0.50000  0.66843  0.99323  1
