CIF file written using JARVIS-Tools package.
data_P4N6O
_symmetry_space_group_name_H-M  'Pnnm'
_cell_length_a       6.12502
_cell_length_b       6.88591
_cell_length_c       6.89302
_cell_angle_alpha    90
_cell_angle_beta     90
_cell_angle_gamma    90

_symmetry_Int_Tables_number  58
_chemical_formula_structural  P4N6O
_chemical_formula_sum  P8N2O2
_cell_volume  290.72231557412687
_cell_formula_units_Z  2
loop_
  _symmetry_equiv_pos_site_id
 _symmetry_equiv_pos_as_xyz
 1  'x, y, z'
loop_
 _atom_site_type_symbol
 _atom_site_label
 _atom_site_symmetry_multiplicity
 _atom_site_fract_x
 _atom_site_fract_y
 _atom_site_fract_z
 _atom_site_fract_occupancy
 N  N1  1  0.89716  0.00000  0.36357  1
 N  N2  1  0.32526  0.79888  0.87843  1
 N  N3  1  0.17474  0.29888  0.37843  1
 N  N4  1  0.67474  0.20112  0.12157  1
 N  N5  1  0.32526  0.20112  0.87843  1
 N  N6  1  0.82526  0.70112  0.62157  1
 N  N7  1  0.82526  0.29888  0.62157  1
 N  N8  1  0.17474  0.70112  0.37843  1
 N  N9  1  0.60284  0.50000  0.86357  1
 N  N10  1  0.10284  0.00000  0.63643  1
 N  N11  1  0.67474  0.79888  0.12157  1
 N  N12  1  0.39716  0.50000  0.13643  1
 O  O1  1  0.00000  0.00000  0.00000  1
 O  O2  1  0.50000  0.50000  0.50000  1
 P  P1  1  0.20629  0.00000  0.85916  1
 P  P2  1  0.70629  0.50000  0.64084  1
 P  P3  1  0.79371  0.00000  0.14084  1
 P  P4  1  0.29371  0.50000  0.35916  1
 P  P5  1  0.50000  0.68600  0.00000  1
 P  P6  1  0.00000  0.81400  0.50000  1
 P  P7  1  0.50000  0.31400  0.00000  1
 P  P8  1  0.00000  0.18600  0.50000  1
