CIF file written using JARVIS-Tools package.
data_SnO2
_symmetry_space_group_name_H-M  'Pnma'
_cell_length_a       3.55858
_cell_length_b       5.29824
_cell_length_c       7.24322
_cell_angle_alpha    90
_cell_angle_beta     90
_cell_angle_gamma    90

_symmetry_Int_Tables_number  62
_chemical_formula_structural  SnO2
_chemical_formula_sum  Sn4O8
_cell_volume  136.56530604013065
_cell_formula_units_Z  4
loop_
  _symmetry_equiv_pos_site_id
 _symmetry_equiv_pos_as_xyz
 1  'x, y, z'
loop_
 _atom_site_type_symbol
 _atom_site_label
 _atom_site_symmetry_multiplicity
 _atom_site_fract_x
 _atom_site_fract_y
 _atom_site_fract_z
 _atom_site_fract_occupancy
 O  O1  1  0.75000  0.47345  0.86535  1
 O  O2  1  0.75000  0.61834  0.38739  1
 O  O3  1  0.25000  0.52655  0.13465  1
 O  O4  1  0.25000  0.38166  0.61261  1
 O  O5  1  0.25000  0.02655  0.36535  1
 O  O6  1  0.25000  0.88166  0.88739  1
 O  O7  1  0.75000  0.11834  0.11261  1
 O  O8  1  0.75000  0.97345  0.63465  1
 Sn  Sn1  1  0.25000  0.76578  0.58458  1
 Sn  Sn2  1  0.75000  0.23422  0.41542  1
 Sn  Sn3  1  0.75000  0.73422  0.08458  1
 Sn  Sn4  1  0.25000  0.26578  0.91542  1
