CIF file written using JARVIS-Tools package.
data_AsPd5
_symmetry_space_group_name_H-M  'C2/m'
_cell_length_a       4.80743
_cell_length_b       4.80742
_cell_length_c       8.57715
_cell_angle_alpha    94.8979
_cell_angle_beta     94.8979
_cell_angle_gamma    108.565

_symmetry_Int_Tables_number  12
_chemical_formula_structural  AsPd5
_chemical_formula_sum  As2Pd0
_cell_volume  185.8940701877441
_cell_formula_units_Z  2
loop_
  _symmetry_equiv_pos_site_id
 _symmetry_equiv_pos_as_xyz
 1  'x, y, z'
loop_
 _atom_site_type_symbol
 _atom_site_label
 _atom_site_symmetry_multiplicity
 _atom_site_fract_x
 _atom_site_fract_y
 _atom_site_fract_z
 _atom_site_fract_occupancy
 As  As1  1  0.25108  0.20541  0.71234  1
 As  As2  1  0.79459  0.74892  0.28766  1
 Pd  Pd1  1  0.22694  0.70266  0.82652  1
 Pd  Pd2  1  0.29734  0.77306  0.17348  1
 Pd  Pd3  1  0.74833  0.18127  0.82652  1
 Pd  Pd4  1  0.81873  0.25167  0.17348  1
 Pd  Pd5  1  0.67011  0.62445  0.64742  1
 Pd  Pd6  1  0.37555  0.32989  0.35258  1
 Pd  Pd7  1  0.76586  0.72019  0.99187  1
 Pd  Pd8  1  0.27981  0.23414  0.00813  1
 Pd  Pd9  1  0.83736  0.16264  0.50000  1
 Pd  Pd10  1  0.20830  0.79170  0.50000  1
