CIF file written using JARVIS-Tools package.
data_TbAl
_symmetry_space_group_name_H-M  'Pbcm'
_cell_length_a       5.62058
_cell_length_b       5.85418
_cell_length_c       11.4717
_cell_angle_alpha    90
_cell_angle_beta     90
_cell_angle_gamma    90

_symmetry_Int_Tables_number  57
_chemical_formula_structural  TbAl
_chemical_formula_sum  Tb8Al8
_cell_volume  377.4637810117538
_cell_formula_units_Z  8
loop_
  _symmetry_equiv_pos_site_id
 _symmetry_equiv_pos_as_xyz
 1  'x, y, z'
loop_
 _atom_site_type_symbol
 _atom_site_label
 _atom_site_symmetry_multiplicity
 _atom_site_fract_x
 _atom_site_fract_y
 _atom_site_fract_z
 _atom_site_fract_occupancy
 Al  Al1  1  0.00000  0.93084  0.25000  1
 Al  Al2  1  0.50000  0.06916  0.75000  1
 Al  Al3  1  0.00000  0.06916  0.75000  1
 Al  Al4  1  0.50000  0.93084  0.25000  1
 Al  Al5  1  0.25000  0.66100  0.09821  1
 Al  Al6  1  0.75000  0.33900  0.90179  1
 Al  Al7  1  0.75000  0.66100  0.40179  1
 Al  Al8  1  0.25000  0.33900  0.59821  1
 Tb  Tb1  1  0.25000  0.16136  0.01474  1
 Tb  Tb2  1  0.75000  0.83864  0.98526  1
 Tb  Tb3  1  0.75000  0.16136  0.48526  1
 Tb  Tb4  1  0.25000  0.83864  0.51474  1
 Tb  Tb5  1  0.25000  0.40041  0.33187  1
 Tb  Tb6  1  0.75000  0.59959  0.66813  1
 Tb  Tb7  1  0.75000  0.40041  0.16813  1
 Tb  Tb8  1  0.25000  0.59959  0.83187  1
