CIF file written using JARVIS-Tools package.
data_ZnSeO3
_symmetry_space_group_name_H-M  'Pbca'
_cell_length_a       6.26164
_cell_length_b       7.17583
_cell_length_c       12.1391
_cell_angle_alpha    90
_cell_angle_beta     90
_cell_angle_gamma    90

_symmetry_Int_Tables_number  61
_chemical_formula_structural  ZnSeO3
_chemical_formula_sum  Zn8Se8O24
_cell_volume  545.4402998888698
_cell_formula_units_Z  8
loop_
  _symmetry_equiv_pos_site_id
 _symmetry_equiv_pos_as_xyz
 1  'x, y, z'
loop_
 _atom_site_type_symbol
 _atom_site_label
 _atom_site_symmetry_multiplicity
 _atom_site_fract_x
 _atom_site_fract_y
 _atom_site_fract_z
 _atom_site_fract_occupancy
 O  O1  1  0.20342  0.46184  0.26735  1
 O  O2  1  0.79658  0.03816  0.76735  1
 O  O3  1  0.65433  0.96094  0.56760  1
 O  O4  1  0.15433  0.03906  0.93240  1
 O  O5  1  0.84567  0.46094  0.43240  1
 O  O6  1  0.34567  0.03906  0.43240  1
 O  O7  1  0.98292  0.84956  0.40853  1
 O  O8  1  0.15433  0.53906  0.56760  1
 O  O9  1  0.29658  0.96184  0.73265  1
 O  O10  1  0.65433  0.46094  0.93240  1
 O  O11  1  0.51708  0.84956  0.90853  1
 O  O12  1  0.48292  0.65044  0.40853  1
 O  O13  1  0.98292  0.34956  0.09147  1
 O  O14  1  0.29658  0.46184  0.76735  1
 O  O15  1  0.48292  0.15044  0.09147  1
 O  O16  1  0.51708  0.34956  0.59147  1
 O  O17  1  0.01708  0.65044  0.90853  1
 O  O18  1  0.01708  0.15044  0.59147  1
 O  O19  1  0.70342  0.53816  0.23265  1
 O  O20  1  0.79658  0.53816  0.73265  1
 O  O21  1  0.20342  0.96184  0.23265  1
 O  O22  1  0.70342  0.03816  0.26735  1
 O  O23  1  0.34567  0.53906  0.06760  1
 O  O24  1  0.84567  0.96094  0.06760  1
 Se  Se1  1  0.88878  0.45018  0.85555  1
 Se  Se2  1  0.11122  0.04982  0.35555  1
 Se  Se3  1  0.61122  0.95018  0.14445  1
 Se  Se4  1  0.38878  0.54982  0.64445  1
 Se  Se5  1  0.38878  0.04982  0.85555  1
 Se  Se6  1  0.88878  0.95018  0.64445  1
 Se  Se7  1  0.11122  0.54982  0.14445  1
 Se  Se8  1  0.61122  0.45018  0.35555  1
 Zn  Zn1  1  0.86304  0.89307  0.90493  1
 Zn  Zn2  1  0.36304  0.10693  0.59507  1
 Zn  Zn3  1  0.63696  0.39307  0.09507  1
 Zn  Zn4  1  0.13696  0.60693  0.40493  1
 Zn  Zn5  1  0.13696  0.10693  0.09507  1
 Zn  Zn6  1  0.63696  0.89307  0.40493  1
 Zn  Zn7  1  0.36304  0.60693  0.90493  1
 Zn  Zn8  1  0.86304  0.39307  0.59507  1
