CIF file written using JARVIS-Tools package.
data_HfPt3
_symmetry_space_group_name_H-M  'P6_3/mmc'
_cell_length_a       5.70032
_cell_length_b       5.70032
_cell_length_c       9.32168
_cell_angle_alpha    90
_cell_angle_beta     90
_cell_angle_gamma    120

_symmetry_Int_Tables_number  194
_chemical_formula_structural  HfPt3
_chemical_formula_sum  Hf4Pt2
_cell_volume  262.31476772418665
_cell_formula_units_Z  4
loop_
  _symmetry_equiv_pos_site_id
 _symmetry_equiv_pos_as_xyz
 1  'x, y, z'
loop_
 _atom_site_type_symbol
 _atom_site_label
 _atom_site_symmetry_multiplicity
 _atom_site_fract_x
 _atom_site_fract_y
 _atom_site_fract_z
 _atom_site_fract_occupancy
 Hf  Hf1  1  0.00000  0.00000  0.00000  1
 Hf  Hf2  1  0.00000  0.00000  0.50000  1
 Hf  Hf3  1  0.66667  0.33333  0.75000  1
 Hf  Hf4  1  0.33333  0.66667  0.25000  1
 Pt  Pt1  1  0.50000  -0.00000  0.00000  1
 Pt  Pt2  1  -0.00000  0.50000  0.50000  1
 Pt  Pt3  1  0.50000  0.50000  0.50000  1
 Pt  Pt4  1  0.50000  0.50000  0.00000  1
 Pt  Pt5  1  -0.00000  0.50000  0.00000  1
 Pt  Pt6  1  0.50000  -0.00000  0.50000  1
 Pt  Pt7  1  0.16898  0.33795  0.75000  1
 Pt  Pt8  1  0.33795  0.16898  0.25000  1
 Pt  Pt9  1  0.83102  0.16898  0.25000  1
 Pt  Pt10  1  0.16898  0.83102  0.75000  1
 Pt  Pt11  1  0.66205  0.83102  0.75000  1
 Pt  Pt12  1  0.83102  0.66205  0.25000  1
