CIF file written using JARVIS-Tools package.
data_Y2Ge5Ru3
_symmetry_space_group_name_H-M  'Ibam'
_cell_length_a       5.80977
_cell_length_b       8.47218
_cell_length_c       8.47218
_cell_angle_alpha    71.3653
_cell_angle_beta     69.948
_cell_angle_gamma    69.948

_symmetry_Int_Tables_number  72
_chemical_formula_structural  Y2Ge5Ru3
_chemical_formula_sum  Y4Ge0Ru6
_cell_volume  358.2199352212733
_cell_formula_units_Z  2
loop_
  _symmetry_equiv_pos_site_id
 _symmetry_equiv_pos_as_xyz
 1  'x, y, z'
loop_
 _atom_site_type_symbol
 _atom_site_label
 _atom_site_symmetry_multiplicity
 _atom_site_fract_x
 _atom_site_fract_y
 _atom_site_fract_z
 _atom_site_fract_occupancy
 Ge  Ge1  1  0.75000  -0.00000  -0.00000  1
 Ge  Ge2  1  0.54223  0.70777  0.70777  1
 Ge  Ge3  1  0.91292  0.76285  0.41131  1
 Ge  Ge4  1  0.04223  0.70777  0.70777  1
 Ge  Ge5  1  0.58708  0.58869  0.23715  1
 Ge  Ge6  1  0.25000  -0.00000  0.00000  1
 Ge  Ge7  1  0.08708  0.23715  0.58869  1
 Ge  Ge8  1  0.41292  0.41131  0.76285  1
 Ge  Ge9  1  0.45777  0.29223  0.29223  1
 Ge  Ge10  1  0.95777  0.29223  0.29223  1
 Ru  Ru1  1  0.14741  0.94487  0.76032  1
 Ru  Ru2  1  0.85259  0.05513  0.23968  1
 Ru  Ru3  1  0.64741  0.76032  0.94487  1
 Ru  Ru4  1  0.75000  0.50000  0.50000  1
 Ru  Ru5  1  0.25000  0.50000  0.50000  1
 Ru  Ru6  1  0.35259  0.23968  0.05513  1
 Y  Y1  1  0.36043  0.90824  0.37090  1
 Y  Y2  1  0.13957  0.62910  0.09176  1
 Y  Y3  1  0.63957  0.09176  0.62910  1
 Y  Y4  1  0.86043  0.37090  0.90824  1
