CIF file written using JARVIS-Tools package.
data_Zr6Co23
_symmetry_space_group_name_H-M  'Fm-3m'
_cell_length_a       8.09844
_cell_length_b       8.09845
_cell_length_c       8.09845
_cell_angle_alpha    60
_cell_angle_beta     60
_cell_angle_gamma    60

_symmetry_Int_Tables_number  225
_chemical_formula_structural  Zr6Co23
_chemical_formula_sum  Zr6Co23
_cell_volume  375.56978981835783
_cell_formula_units_Z  1
loop_
  _symmetry_equiv_pos_site_id
 _symmetry_equiv_pos_as_xyz
 1  'x, y, z'
loop_
 _atom_site_type_symbol
 _atom_site_label
 _atom_site_symmetry_multiplicity
 _atom_site_fract_x
 _atom_site_fract_y
 _atom_site_fract_z
 _atom_site_fract_occupancy
 Co  Co1  1  0.50000  0.50000  0.50000  1
 Co  Co2  1  0.50000  0.00000  -0.00000  1
 Co  Co3  1  0.00000  0.00000  0.50000  1
 Co  Co4  1  0.50000  0.50000  -0.00000  1
 Co  Co5  1  0.00000  0.50000  0.50000  1
 Co  Co6  1  0.00000  0.50000  -0.00000  1
 Co  Co7  1  0.50000  0.00000  0.50000  1
 Co  Co8  1  0.37924  0.37924  0.37924  1
 Co  Co9  1  0.62076  0.62076  0.13773  1
 Co  Co10  1  0.13773  0.62076  0.62076  1
 Co  Co11  1  0.62076  0.13773  0.62076  1
 Co  Co12  1  0.86227  0.37924  0.37924  1
 Co  Co13  1  0.37924  0.86227  0.37924  1
 Co  Co14  1  0.37924  0.37924  0.86227  1
 Co  Co15  1  0.62076  0.62076  0.62076  1
 Co  Co16  1  0.82538  0.82538  0.52387  1
 Co  Co17  1  0.52387  0.82538  0.82538  1
 Co  Co18  1  0.82538  0.52387  0.82538  1
 Co  Co19  1  0.47613  0.17462  0.17462  1
 Co  Co20  1  0.17462  0.47613  0.17462  1
 Co  Co21  1  0.17462  0.17462  0.47613  1
 Co  Co22  1  0.82538  0.82538  0.82538  1
 Co  Co23  1  0.17462  0.17462  0.17462  1
 Zr  Zr1  1  0.21114  0.78886  0.21114  1
 Zr  Zr2  1  0.78886  0.21114  0.21114  1
 Zr  Zr3  1  0.78886  0.78886  0.21114  1
 Zr  Zr4  1  0.21114  0.21114  0.78886  1
 Zr  Zr5  1  0.78886  0.21114  0.78886  1
 Zr  Zr6  1  0.21114  0.78886  0.78886  1
