CIF file written using JARVIS-Tools package.
data_K2SO4
_symmetry_space_group_name_H-M  'P-3m1'
_cell_length_a       5.17121
_cell_length_b       5.17121
_cell_length_c       9.31558
_cell_angle_alpha    90
_cell_angle_beta     90
_cell_angle_gamma    120

_symmetry_Int_Tables_number  164
_chemical_formula_structural  K2SO4
_chemical_formula_sum  K4S2O8
_cell_volume  215.73731352757403
_cell_formula_units_Z  2
loop_
  _symmetry_equiv_pos_site_id
 _symmetry_equiv_pos_as_xyz
 1  'x, y, z'
loop_
 _atom_site_type_symbol
 _atom_site_label
 _atom_site_symmetry_multiplicity
 _atom_site_fract_x
 _atom_site_fract_y
 _atom_site_fract_z
 _atom_site_fract_occupancy
 K  K1  1  0.00000  0.00000  0.00000  1
 K  K2  1  0.66667  0.33333  0.04492  1
 K  K3  1  0.00000  0.00000  0.50000  1
 K  K4  1  0.33333  0.66667  0.95508  1
 O  O1  1  0.66667  0.33333  0.55958  1
 O  O2  1  0.33333  0.66667  0.44042  1
 O  O3  1  0.85011  0.14989  0.23709  1
 O  O4  1  0.29979  0.14989  0.23709  1
 O  O5  1  0.14989  0.29979  0.76291  1
 O  O6  1  0.14989  0.85011  0.76291  1
 O  O7  1  0.70021  0.85011  0.76291  1
 O  O8  1  0.85011  0.70021  0.23709  1
 S  S1  1  0.33333  0.66667  0.28502  1
 S  S2  1  0.66667  0.33333  0.71498  1
