CIF file written using JARVIS-Tools package.
data_Nb2Se9
_symmetry_space_group_name_H-M  'P-1'
_cell_length_a       8.24975
_cell_length_b       8.39486
_cell_length_c       8.48455
_cell_angle_alpha    98.4966
_cell_angle_beta     94.1703
_cell_angle_gamma    92.0513

_symmetry_Int_Tables_number  2
_chemical_formula_structural  Nb2Se9
_chemical_formula_sum  Nb4Se8
_cell_volume  578.9685264084407
_cell_formula_units_Z  2
loop_
  _symmetry_equiv_pos_site_id
 _symmetry_equiv_pos_as_xyz
 1  'x, y, z'
loop_
 _atom_site_type_symbol
 _atom_site_label
 _atom_site_symmetry_multiplicity
 _atom_site_fract_x
 _atom_site_fract_y
 _atom_site_fract_z
 _atom_site_fract_occupancy
 Nb  Nb1  1  0.08890  0.09858  0.13782  1
 Nb  Nb2  1  0.91110  0.90142  0.86218  1
 Nb  Nb3  1  0.41568  0.36198  0.39736  1
 Nb  Nb4  1  0.58432  0.63802  0.60264  1
 Se  Se1  1  0.96852  0.19126  0.41724  1
 Se  Se2  1  0.03148  0.80874  0.58276  1
 Se  Se3  1  0.32998  0.47589  0.69097  1
 Se  Se4  1  0.67002  0.52411  0.30903  1
 Se  Se5  1  0.60818  0.78752  0.91587  1
 Se  Se6  1  0.39182  0.21248  0.08413  1
 Se  Se7  1  0.55365  0.09271  0.28074  1
 Se  Se8  1  0.96081  0.80480  0.14811  1
 Se  Se9  1  0.73399  0.92669  0.58544  1
 Se  Se10  1  0.03919  0.19520  0.85189  1
 Se  Se11  1  0.57352  0.33887  0.67639  1
 Se  Se12  1  0.42648  0.66113  0.32361  1
 Se  Se13  1  0.18910  0.81589  0.99693  1
 Se  Se14  1  0.81090  0.18411  0.00307  1
 Se  Se15  1  0.90327  0.59274  0.69460  1
 Se  Se16  1  0.09673  0.40726  0.30540  1
 Se  Se17  1  0.26601  0.07331  0.41456  1
 Se  Se18  1  0.44635  0.90729  0.71926  1
