CIF file written using JARVIS-Tools package.
data_Pr2Au
_symmetry_space_group_name_H-M  'Pnma'
_cell_length_a       5.09071
_cell_length_b       7.35203
_cell_length_c       9.41243
_cell_angle_alpha    90
_cell_angle_beta     90
_cell_angle_gamma    90

_symmetry_Int_Tables_number  62
_chemical_formula_structural  Pr2Au
_chemical_formula_sum  Pr8Au4
_cell_volume  352.279872025371
_cell_formula_units_Z  4
loop_
  _symmetry_equiv_pos_site_id
 _symmetry_equiv_pos_as_xyz
 1  'x, y, z'
loop_
 _atom_site_type_symbol
 _atom_site_label
 _atom_site_symmetry_multiplicity
 _atom_site_fract_x
 _atom_site_fract_y
 _atom_site_fract_z
 _atom_site_fract_occupancy
 Au  Au1  1  0.25000  0.75908  0.59675  1
 Au  Au2  1  0.75000  0.24092  0.40325  1
 Au  Au3  1  0.25000  0.25908  0.90325  1
 Au  Au4  1  0.75000  0.74092  0.09675  1
 Pr  Pr1  1  0.25000  0.99299  0.32427  1
 Pr  Pr2  1  0.75000  0.00701  0.67573  1
 Pr  Pr3  1  0.25000  0.49299  0.17573  1
 Pr  Pr4  1  0.75000  0.50701  0.82427  1
 Pr  Pr5  1  0.75000  0.15214  0.08604  1
 Pr  Pr6  1  0.25000  0.84786  0.91396  1
 Pr  Pr7  1  0.75000  0.65214  0.41396  1
 Pr  Pr8  1  0.25000  0.34786  0.58604  1
