CIF file written using JARVIS-Tools package.
data_RbV2CrO7
_symmetry_space_group_name_H-M  'P2/c'
_cell_length_a       6.90876
_cell_length_b       4.87285
_cell_length_c       8.41658
_cell_angle_alpha    90
_cell_angle_beta     101.254
_cell_angle_gamma    90

_symmetry_Int_Tables_number  13
_chemical_formula_structural  RbV2CrO7
_chemical_formula_sum  Rb2V4Cr2O4
_cell_volume  277.8988641595385
_cell_formula_units_Z  2
loop_
  _symmetry_equiv_pos_site_id
 _symmetry_equiv_pos_as_xyz
 1  'x, y, z'
loop_
 _atom_site_type_symbol
 _atom_site_label
 _atom_site_symmetry_multiplicity
 _atom_site_fract_x
 _atom_site_fract_y
 _atom_site_fract_z
 _atom_site_fract_occupancy
 Cr  Cr1  1  0.50000  0.50000  0.00000  1
 Cr  Cr2  1  0.00000  0.50000  0.00000  1
 O  O1  1  0.61259  0.83899  0.11143  1
 O  O2  1  0.01826  0.32672  0.79730  1
 O  O3  1  0.38741  0.16101  0.88857  1
 O  O4  1  0.75000  0.28973  -0.00000  1
 O  O5  1  0.62097  0.12418  0.64981  1
 O  O6  1  0.11259  0.16101  0.11143  1
 O  O7  1  0.88741  0.83899  0.88857  1
 O  O8  1  0.98174  0.67328  0.20270  1
 O  O9  1  0.51826  0.67328  0.79730  1
 O  O10  1  0.25000  0.71027  0.00000  1
 O  O11  1  0.48174  0.32672  0.20270  1
 O  O12  1  0.87903  0.12418  0.35019  1
 O  O13  1  0.12097  0.87582  0.64981  1
 O  O14  1  0.37903  0.87582  0.35019  1
 Rb  Rb1  1  0.75000  0.60782  0.50000  1
 Rb  Rb2  1  0.25000  0.39218  0.50000  1
 V  V1  1  0.12387  0.00306  0.82985  1
 V  V2  1  0.87613  0.99694  0.17015  1
 V  V3  1  0.62387  0.99694  0.82985  1
 V  V4  1  0.37613  0.00306  0.17015  1
