CIF file written using JARVIS-Tools package.
data_VS4
_symmetry_space_group_name_H-M  'C2/c'
_cell_length_a       6.79503
_cell_length_b       8.27223
_cell_length_c       8.2722
_cell_angle_alpha    78.4794
_cell_angle_beta     72.8153
_cell_angle_gamma    72.8155

_symmetry_Int_Tables_number  15
_chemical_formula_structural  VS4
_chemical_formula_sum  V4S6
_cell_volume  421.1592998467504
_cell_formula_units_Z  4
loop_
  _symmetry_equiv_pos_site_id
 _symmetry_equiv_pos_as_xyz
 1  'x, y, z'
loop_
 _atom_site_type_symbol
 _atom_site_label
 _atom_site_symmetry_multiplicity
 _atom_site_fract_x
 _atom_site_fract_y
 _atom_site_fract_z
 _atom_site_fract_occupancy
 S  S1  1  0.75261  0.57817  0.47124  1
 S  S2  1  0.54718  0.68634  0.31903  1
 S  S3  1  0.24739  0.42183  0.52876  1
 S  S4  1  0.45282  0.31366  0.68097  1
 S  S5  1  0.25260  0.97124  0.07817  1
 S  S6  1  0.97398  0.35681  0.16583  1
 S  S7  1  0.52602  0.33417  0.14319  1
 S  S8  1  0.45520  0.87848  0.68296  1
 S  S9  1  0.74740  0.02876  0.92183  1
 S  S10  1  0.95283  0.18097  0.81367  1
 S  S11  1  0.47398  0.66583  0.85681  1
 S  S12  1  0.54480  0.12152  0.31704  1
 S  S13  1  0.04481  0.81703  0.62152  1
 S  S14  1  0.02602  0.64319  0.83417  1
 S  S15  1  0.04717  0.81903  0.18633  1
 S  S16  1  0.95519  0.18297  0.37848  1
 V  V1  1  0.61563  0.38343  0.38560  1
 V  V2  1  0.38437  0.61657  0.61440  1
 V  V3  1  0.88437  0.11440  0.11657  1
 V  V4  1  0.11563  0.88560  0.88343  1
