CIF file written using JARVIS-Tools package.
data_Ba2Bi3
_symmetry_space_group_name_H-M  'Immm'
_cell_length_a       4.84696
_cell_length_b       6.91452
_cell_length_c       6.91452
_cell_angle_alpha    70.6128
_cell_angle_beta     69.4826
_cell_angle_gamma    69.4826

_symmetry_Int_Tables_number  71
_chemical_formula_structural  Ba2Bi3
_chemical_formula_sum  Ba2Bi3
_cell_volume  197.40806135700865
_cell_formula_units_Z  1
loop_
  _symmetry_equiv_pos_site_id
 _symmetry_equiv_pos_as_xyz
 1  'x, y, z'
loop_
 _atom_site_type_symbol
 _atom_site_label
 _atom_site_symmetry_multiplicity
 _atom_site_fract_x
 _atom_site_fract_y
 _atom_site_fract_z
 _atom_site_fract_occupancy
 Ba  Ba1  1  0.77704  0.72296  0.72296  1
 Ba  Ba2  1  0.22296  0.27704  0.27704  1
 Bi  Bi1  1  0.50000  0.29514  0.70486  1
 Bi  Bi2  1  0.00000  0.00000  0.00000  1
 Bi  Bi3  1  0.50000  0.70486  0.29514  1
