CIF file written using JARVIS-Tools package.
data_Li2FeSnP2O8
_symmetry_space_group_name_H-M  'P2_1/m'
_cell_length_a       4.83516
_cell_length_b       5.88777
_cell_length_c       12.0747
_cell_angle_alpha    90
_cell_angle_beta     99.7423
_cell_angle_gamma    90

_symmetry_Int_Tables_number  11
_chemical_formula_structural  Li2FeSnP2O8
_chemical_formula_sum  Li4Fe2Sn2P4O6
_cell_volume  338.78849459340245
_cell_formula_units_Z  2
loop_
  _symmetry_equiv_pos_site_id
 _symmetry_equiv_pos_as_xyz
 1  'x, y, z'
loop_
 _atom_site_type_symbol
 _atom_site_label
 _atom_site_symmetry_multiplicity
 _atom_site_fract_x
 _atom_site_fract_y
 _atom_site_fract_z
 _atom_site_fract_occupancy
 Fe  Fe1  1  -0.05280  0.75000  0.31314  1
 Fe  Fe2  1  0.05280  0.25000  0.68686  1
 Li  Li1  1  0.00000  0.00000  0.00000  1
 Li  Li2  1  0.00000  0.50000  0.00000  1
 Li  Li3  1  0.50000  0.00000  0.50000  1
 Li  Li4  1  0.50000  0.50000  0.50000  1
 O  O1  1  0.28468  0.25000  0.00880  1
 O  O2  1  0.72568  0.25000  0.91758  1
 O  O3  1  0.72714  0.95727  0.17606  1
 O  O4  1  0.72714  0.54273  0.17606  1
 O  O5  1  0.16639  0.46514  0.36446  1
 O  O6  1  0.16639  0.03486  0.36446  1
 O  O7  1  0.27432  0.75000  0.08242  1
 O  O8  1  0.77400  0.75000  0.45751  1
 O  O9  1  0.22600  0.25000  0.54249  1
 O  O10  1  0.26385  0.75000  0.58984  1
 O  O11  1  0.27286  0.45727  0.82394  1
 O  O12  1  0.83361  0.53486  0.63554  1
 O  O13  1  0.73615  0.25000  0.41016  1
 O  O14  1  0.27286  0.04273  0.82394  1
 O  O15  1  0.83361  0.96514  0.63554  1
 O  O16  1  0.71532  0.75000  0.99120  1
 P  P1  1  0.59347  0.75000  0.10145  1
 P  P2  1  0.05758  0.25000  0.42001  1
 P  P3  1  0.94242  0.75000  0.57999  1
 P  P4  1  0.40653  0.25000  0.89855  1
 Sn  Sn1  1  0.55911  0.75000  0.78365  1
 Sn  Sn2  1  0.44089  0.25000  0.21635  1
