CIF file written using JARVIS-Tools package.
data_CaNi4Sn2
_symmetry_space_group_name_H-M  'I4/mcm'
_cell_length_a       6.72403
_cell_length_b       6.72403
_cell_length_c       6.72403
_cell_angle_alpha    108.153
_cell_angle_beta     110.135
_cell_angle_gamma    110.135

_symmetry_Int_Tables_number  140
_chemical_formula_structural  CaNi4Sn2
_chemical_formula_sum  Ca2Ni8Sn4
_cell_volume  233.9345642239181
_cell_formula_units_Z  2
loop_
  _symmetry_equiv_pos_site_id
 _symmetry_equiv_pos_as_xyz
 1  'x, y, z'
loop_
 _atom_site_type_symbol
 _atom_site_label
 _atom_site_symmetry_multiplicity
 _atom_site_fract_x
 _atom_site_fract_y
 _atom_site_fract_z
 _atom_site_fract_occupancy
 Ca  Ca1  1  0.00000  0.25000  0.25000  1
 Ca  Ca2  1  -0.00000  0.75000  0.75000  1
 Ni  Ni1  1  0.50000  0.47488  0.69441  1
 Ni  Ni2  1  0.21953  0.69441  0.19441  1
 Ni  Ni3  1  0.78047  0.97488  0.47488  1
 Ni  Ni4  1  0.78047  0.30559  0.80559  1
 Ni  Ni5  1  0.21953  0.02512  0.52512  1
 Ni  Ni6  1  0.50000  0.19441  0.97488  1
 Ni  Ni7  1  0.50000  0.80559  0.02512  1
 Ni  Ni8  1  0.50000  0.52512  0.30559  1
 Sn  Sn1  1  0.50000  0.15843  0.34157  1
 Sn  Sn2  1  0.18314  0.34157  0.84157  1
 Sn  Sn3  1  0.81686  0.65843  0.15843  1
 Sn  Sn4  1  0.50000  0.84157  0.65843  1
