CIF file written using JARVIS-Tools package.
data_RhN3
_symmetry_space_group_name_H-M  'Im-3'
_cell_length_a       5.69771
_cell_length_b       5.69771
_cell_length_c       5.69771
_cell_angle_alpha    109.471
_cell_angle_beta     109.471
_cell_angle_gamma    109.471

_symmetry_Int_Tables_number  204
_chemical_formula_structural  RhN3
_chemical_formula_sum  Rh4N2
_cell_volume  142.39004115280167
_cell_formula_units_Z  4
loop_
  _symmetry_equiv_pos_site_id
 _symmetry_equiv_pos_as_xyz
 1  'x, y, z'
loop_
 _atom_site_type_symbol
 _atom_site_label
 _atom_site_symmetry_multiplicity
 _atom_site_fract_x
 _atom_site_fract_y
 _atom_site_fract_z
 _atom_site_fract_occupancy
 N  N1  1  0.50671  0.88842  0.61829  1
 N  N2  1  0.27013  0.88842  0.38171  1
 N  N3  1  0.72987  0.11158  0.61829  1
 N  N4  1  0.11158  0.38171  0.49329  1
 N  N5  1  0.49329  0.11158  0.38171  1
 N  N6  1  0.11158  0.61829  0.72987  1
 N  N7  1  0.38171  0.27013  0.88842  1
 N  N8  1  0.88842  0.61829  0.50671  1
 N  N9  1  0.61829  0.72987  0.11158  1
 N  N10  1  0.88842  0.38171  0.27013  1
 N  N11  1  0.61829  0.50671  0.88842  1
 N  N12  1  0.38171  0.49329  0.11158  1
 Rh  Rh1  1  0.50000  0.00000  0.00000  1
 Rh  Rh2  1  0.00000  0.00000  0.50000  1
 Rh  Rh3  1  0.00000  0.50000  0.00000  1
 Rh  Rh4  1  0.50000  0.50000  0.50000  1
