CIF file written using JARVIS-Tools package.
data_NdScO3
_symmetry_space_group_name_H-M  'Pnma'
_cell_length_a       5.59839
_cell_length_b       5.82747
_cell_length_c       8.04659
_cell_angle_alpha    90
_cell_angle_beta     90
_cell_angle_gamma    90

_symmetry_Int_Tables_number  62
_chemical_formula_structural  NdScO3
_chemical_formula_sum  Nd4Sc4O2
_cell_volume  262.51562056391083
_cell_formula_units_Z  4
loop_
  _symmetry_equiv_pos_site_id
 _symmetry_equiv_pos_as_xyz
 1  'x, y, z'
loop_
 _atom_site_type_symbol
 _atom_site_label
 _atom_site_symmetry_multiplicity
 _atom_site_fract_x
 _atom_site_fract_y
 _atom_site_fract_z
 _atom_site_fract_occupancy
 Nd  Nd1  1  0.01541  0.94296  0.25000  1
 Nd  Nd2  1  0.51541  0.55704  0.75000  1
 Nd  Nd3  1  0.48459  0.44296  0.25000  1
 Nd  Nd4  1  0.98459  0.05704  0.75000  1
 O  O1  1  0.89099  0.54024  0.25000  1
 O  O2  1  0.19810  0.19960  0.44257  1
 O  O3  1  0.60901  0.04024  0.25000  1
 O  O4  1  0.10901  0.45976  0.75000  1
 O  O5  1  0.39099  0.95976  0.75000  1
 O  O6  1  0.19810  0.19960  0.05743  1
 O  O7  1  0.80190  0.80040  0.55743  1
 O  O8  1  0.30190  0.69960  0.05743  1
 O  O9  1  0.69810  0.30040  0.94257  1
 O  O10  1  0.80190  0.80040  0.94257  1
 O  O11  1  0.30190  0.69960  0.44257  1
 O  O12  1  0.69810  0.30040  0.55743  1
 Sc  Sc1  1  0.00000  0.50000  0.50000  1
 Sc  Sc2  1  0.50000  0.00000  0.50000  1
 Sc  Sc3  1  0.50000  0.00000  0.00000  1
 Sc  Sc4  1  0.00000  0.50000  0.00000  1
