CIF file written using JARVIS-Tools package.
data_YbCuS2
_symmetry_space_group_name_H-M  'Pnma'
_cell_length_a       3.91515
_cell_length_b       6.21465
_cell_length_c       13.8848
_cell_angle_alpha    90
_cell_angle_beta     90
_cell_angle_gamma    90

_symmetry_Int_Tables_number  62
_chemical_formula_structural  YbCuS2
_chemical_formula_sum  Yb4Cu4S8
_cell_volume  337.8363164736943
_cell_formula_units_Z  4
loop_
  _symmetry_equiv_pos_site_id
 _symmetry_equiv_pos_as_xyz
 1  'x, y, z'
loop_
 _atom_site_type_symbol
 _atom_site_label
 _atom_site_symmetry_multiplicity
 _atom_site_fract_x
 _atom_site_fract_y
 _atom_site_fract_z
 _atom_site_fract_occupancy
 Cu  Cu1  1  0.25000  0.13490  0.94630  1
 Cu  Cu2  1  0.75000  0.63490  0.55370  1
 Cu  Cu3  1  0.75000  0.86510  0.05370  1
 Cu  Cu4  1  0.25000  0.36510  0.44630  1
 S  S1  1  0.25000  0.26521  0.79763  1
 S  S2  1  0.75000  0.73479  0.20237  1
 S  S3  1  0.75000  0.76521  0.70237  1
 S  S4  1  0.25000  0.23479  0.29763  1
 S  S5  1  0.25000  0.76104  0.96973  1
 S  S6  1  0.25000  0.73896  0.46973  1
 S  S7  1  0.75000  0.26104  0.53027  1
 S  S8  1  0.75000  0.23896  0.03027  1
 Yb  Yb1  1  0.25000  0.47673  0.13527  1
 Yb  Yb2  1  0.75000  0.52327  0.86473  1
 Yb  Yb3  1  0.75000  0.97673  0.36473  1
 Yb  Yb4  1  0.25000  0.02327  0.63527  1
