CIF file written using JARVIS-Tools package.
data_Ta6Co16Si7
_symmetry_space_group_name_H-M  'Fm-3m'
_cell_length_a       7.90606
_cell_length_b       7.90606
_cell_length_c       7.90606
_cell_angle_alpha    60
_cell_angle_beta     60
_cell_angle_gamma    60

_symmetry_Int_Tables_number  225
_chemical_formula_structural  Ta6Co16Si7
_chemical_formula_sum  Ta6Co6Si7
_cell_volume  349.4338042850331
_cell_formula_units_Z  1
loop_
  _symmetry_equiv_pos_site_id
 _symmetry_equiv_pos_as_xyz
 1  'x, y, z'
loop_
 _atom_site_type_symbol
 _atom_site_label
 _atom_site_symmetry_multiplicity
 _atom_site_fract_x
 _atom_site_fract_y
 _atom_site_fract_z
 _atom_site_fract_occupancy
 Co  Co1  1  0.16547  0.50359  0.16547  1
 Co  Co2  1  0.38135  0.38135  0.85594  1
 Co  Co3  1  0.83453  0.83453  0.49641  1
 Co  Co4  1  0.16547  0.16547  0.50359  1
 Co  Co5  1  0.83453  0.49641  0.83453  1
 Co  Co6  1  0.61865  0.61865  0.14406  1
 Co  Co7  1  0.16547  0.16547  0.16547  1
 Co  Co8  1  0.38135  0.85594  0.38135  1
 Co  Co9  1  0.61865  0.61865  0.61865  1
 Co  Co10  1  0.50359  0.16547  0.16547  1
 Co  Co11  1  0.85594  0.38135  0.38135  1
 Co  Co12  1  0.83453  0.83453  0.83453  1
 Co  Co13  1  0.14406  0.61865  0.61865  1
 Co  Co14  1  0.49641  0.83453  0.83453  1
 Co  Co15  1  0.38135  0.38135  0.38135  1
 Co  Co16  1  0.61865  0.14406  0.61865  1
 Si  Si1  1  0.50000  0.50000  0.00000  1
 Si  Si2  1  0.00000  0.50000  0.50000  1
 Si  Si3  1  0.50000  0.00000  0.50000  1
 Si  Si4  1  0.50000  0.50000  0.50000  1
 Si  Si5  1  0.00000  0.50000  0.00000  1
 Si  Si6  1  0.00000  0.00000  0.50000  1
 Si  Si7  1  0.50000  0.00000  0.00000  1
 Ta  Ta1  1  0.79792  0.20208  0.20208  1
 Ta  Ta2  1  0.20208  0.79792  0.79792  1
 Ta  Ta3  1  0.20208  0.79792  0.20208  1
 Ta  Ta4  1  0.20208  0.20208  0.79792  1
 Ta  Ta5  1  0.79792  0.20208  0.79792  1
 Ta  Ta6  1  0.79792  0.79792  0.20208  1
