CIF file written using JARVIS-Tools package.
data_Zr2Be17
_symmetry_space_group_name_H-M  'R-3m'
_cell_length_a       5.67774
_cell_length_b       5.67773
_cell_length_c       5.67774
_cell_angle_alpha    82.8969
_cell_angle_beta     82.8969
_cell_angle_gamma    82.8969

_symmetry_Int_Tables_number  166
_chemical_formula_structural  Zr2Be17
_chemical_formula_sum  Zr2Be7
_cell_volume  179.13805145650173
_cell_formula_units_Z  1
loop_
  _symmetry_equiv_pos_site_id
 _symmetry_equiv_pos_as_xyz
 1  'x, y, z'
loop_
 _atom_site_type_symbol
 _atom_site_label
 _atom_site_symmetry_multiplicity
 _atom_site_fract_x
 _atom_site_fract_y
 _atom_site_fract_z
 _atom_site_fract_occupancy
 Be  Be1  1  0.40373  0.40373  0.40373  1
 Be  Be2  1  0.59627  0.59627  0.59627  1
 Be  Be3  1  0.50000  0.50000  -0.00000  1
 Be  Be4  1  -0.00000  0.50000  0.50000  1
 Be  Be5  1  0.50000  -0.00000  0.50000  1
 Be  Be6  1  0.78622  0.21378  0.50000  1
 Be  Be7  1  0.50000  0.78622  0.21378  1
 Be  Be8  1  0.21378  0.50000  0.78622  1
 Be  Be9  1  0.21378  0.78622  0.50000  1
 Be  Be10  1  0.50000  0.21378  0.78622  1
 Be  Be11  1  0.15762  0.65972  0.15762  1
 Be  Be12  1  0.15762  0.15762  0.65972  1
 Be  Be13  1  0.65972  0.15762  0.15762  1
 Be  Be14  1  0.34028  0.84238  0.84238  1
 Be  Be15  1  0.84238  0.34028  0.84238  1
 Be  Be16  1  0.84238  0.84238  0.34028  1
 Be  Be17  1  0.78622  0.50000  0.21378  1
 Zr  Zr1  1  0.16253  0.16253  0.16253  1
 Zr  Zr2  1  0.83747  0.83747  0.83747  1
