CIF file written using JARVIS-Tools package.
data_Sb3Rh
_symmetry_space_group_name_H-M  'Im-3'
_cell_length_a       8.12972
_cell_length_b       8.12972
_cell_length_c       8.12972
_cell_angle_alpha    109.471
_cell_angle_beta     109.471
_cell_angle_gamma    109.471

_symmetry_Int_Tables_number  204
_chemical_formula_structural  Sb3Rh
_chemical_formula_sum  Sb2Rh4
_cell_volume  413.6226981054732
_cell_formula_units_Z  4
loop_
  _symmetry_equiv_pos_site_id
 _symmetry_equiv_pos_as_xyz
 1  'x, y, z'
loop_
 _atom_site_type_symbol
 _atom_site_label
 _atom_site_symmetry_multiplicity
 _atom_site_fract_x
 _atom_site_fract_y
 _atom_site_fract_z
 _atom_site_fract_occupancy
 Rh  Rh1  1  0.50000  0.50000  0.50000  1
 Rh  Rh2  1  0.00000  0.50000  0.00000  1
 Rh  Rh3  1  0.00000  0.00000  0.50000  1
 Rh  Rh4  1  0.50000  0.00000  -0.00000  1
 Sb  Sb1  1  0.49372  0.15461  0.33910  1
 Sb  Sb2  1  0.15461  0.66090  0.81551  1
 Sb  Sb3  1  0.33910  0.18449  0.84539  1
 Sb  Sb4  1  0.84539  0.66090  0.50628  1
 Sb  Sb5  1  0.66090  0.81551  0.15461  1
 Sb  Sb6  1  0.84539  0.33910  0.18449  1
 Sb  Sb7  1  0.66090  0.50628  0.84539  1
 Sb  Sb8  1  0.33910  0.49372  0.15461  1
 Sb  Sb9  1  0.15461  0.33910  0.49372  1
 Sb  Sb10  1  0.81551  0.15461  0.66090  1
 Sb  Sb11  1  0.18449  0.84539  0.33910  1
 Sb  Sb12  1  0.50628  0.84539  0.66090  1
