CIF file written using JARVIS-Tools package.
data_Al3B2Ru4
_symmetry_space_group_name_H-M  'P4/mmm'
_cell_length_a       8.55734
_cell_length_b       8.55734
_cell_length_c       2.94356
_cell_angle_alpha    90
_cell_angle_beta     90
_cell_angle_gamma    90

_symmetry_Int_Tables_number  123
_chemical_formula_structural  Al3B2Ru4
_chemical_formula_sum  Al6B4Ru8
_cell_volume  215.55145017145148
_cell_formula_units_Z  2
loop_
  _symmetry_equiv_pos_site_id
 _symmetry_equiv_pos_as_xyz
 1  'x, y, z'
loop_
 _atom_site_type_symbol
 _atom_site_label
 _atom_site_symmetry_multiplicity
 _atom_site_fract_x
 _atom_site_fract_y
 _atom_site_fract_z
 _atom_site_fract_occupancy
 Al  Al1  1  0.00000  0.00000  0.50000  1
 Al  Al2  1  0.50000  0.50000  0.50000  1
 Al  Al3  1  0.00000  0.34674  0.50000  1
 Al  Al4  1  0.34674  0.00000  0.50000  1
 Al  Al5  1  0.65326  0.00000  0.50000  1
 Al  Al6  1  0.00000  0.65326  0.50000  1
 B  B1  1  0.30656  0.69344  0.50000  1
 B  B2  1  0.30656  0.30656  0.50000  1
 B  B3  1  0.69344  0.69344  0.50000  1
 B  B4  1  0.69344  0.30656  0.50000  1
 Ru  Ru1  1  0.75651  0.50000  0.00000  1
 Ru  Ru2  1  0.24349  0.50000  0.00000  1
 Ru  Ru3  1  0.82361  0.82361  0.00000  1
 Ru  Ru4  1  0.82361  0.17639  0.00000  1
 Ru  Ru5  1  0.17639  0.82361  0.00000  1
 Ru  Ru6  1  0.17639  0.17639  0.00000  1
 Ru  Ru7  1  0.50000  0.75651  0.00000  1
 Ru  Ru8  1  0.50000  0.24349  0.00000  1
