CIF file written using JARVIS-Tools package.
data_SmScO3
_symmetry_space_group_name_H-M  'Pnma'
_cell_length_a       5.53331
_cell_length_b       5.80285
_cell_length_c       7.995
_cell_angle_alpha    90
_cell_angle_beta     90
_cell_angle_gamma    90

_symmetry_Int_Tables_number  62
_chemical_formula_structural  SmScO3
_chemical_formula_sum  Sm4Sc4O2
_cell_volume  256.71125683293286
_cell_formula_units_Z  4
loop_
  _symmetry_equiv_pos_site_id
 _symmetry_equiv_pos_as_xyz
 1  'x, y, z'
loop_
 _atom_site_type_symbol
 _atom_site_label
 _atom_site_symmetry_multiplicity
 _atom_site_fract_x
 _atom_site_fract_y
 _atom_site_fract_z
 _atom_site_fract_occupancy
 O  O1  1  0.30554  0.69677  0.06134  1
 O  O2  1  0.88266  0.54609  0.25000  1
 O  O3  1  0.19446  0.19677  0.43866  1
 O  O4  1  0.61734  0.04609  0.25000  1
 O  O5  1  0.11734  0.45391  0.75000  1
 O  O6  1  0.38266  0.95391  0.75000  1
 O  O7  1  0.19446  0.19677  0.06134  1
 O  O8  1  0.80554  0.80323  0.56134  1
 O  O9  1  0.30554  0.69677  0.43866  1
 O  O10  1  0.69446  0.30323  0.56134  1
 O  O11  1  0.80554  0.80323  0.93866  1
 O  O12  1  0.69446  0.30323  0.93866  1
 Sc  Sc1  1  0.00000  0.50000  0.50000  1
 Sc  Sc2  1  0.50000  0.00000  0.50000  1
 Sc  Sc3  1  0.50000  0.00000  0.00000  1
 Sc  Sc4  1  0.00000  0.50000  0.00000  1
 Sm  Sm1  1  0.98265  0.06076  0.75000  1
 Sm  Sm2  1  0.48265  0.43924  0.25000  1
 Sm  Sm3  1  0.51735  0.56076  0.75000  1
 Sm  Sm4  1  0.01735  0.93924  0.25000  1
