CIF file written using JARVIS-Tools package.
data_TiMnH12O6F6
_symmetry_space_group_name_H-M  'R-3'
_cell_length_a       6.51553
_cell_length_b       6.51553
_cell_length_c       6.51553
_cell_angle_alpha    95.9684
_cell_angle_beta     95.9685
_cell_angle_gamma    95.9684

_symmetry_Int_Tables_number  148
_chemical_formula_structural  TiMnH12O6F6
_chemical_formula_sum  TiMnH2O6F6
_cell_volume  271.75953867151935
_cell_formula_units_Z  1
loop_
  _symmetry_equiv_pos_site_id
 _symmetry_equiv_pos_as_xyz
 1  'x, y, z'
loop_
 _atom_site_type_symbol
 _atom_site_label
 _atom_site_symmetry_multiplicity
 _atom_site_fract_x
 _atom_site_fract_y
 _atom_site_fract_z
 _atom_site_fract_occupancy
 F  F1  1  0.25886  0.34358  0.56892  1
 F  F2  1  0.34358  0.56892  0.25886  1
 F  F3  1  0.74114  0.65642  0.43108  1
 F  F4  1  0.43108  0.74114  0.65642  1
 F  F5  1  0.65642  0.43108  0.74114  1
 F  F6  1  0.56892  0.25886  0.34358  1
 H  H1  1  0.94913  0.80683  0.58875  1
 H  H2  1  0.18067  0.32413  0.80937  1
 H  H3  1  0.80937  0.18067  0.32413  1
 H  H4  1  0.58875  0.94913  0.80683  1
 H  H5  1  0.81933  0.67587  0.19063  1
 H  H6  1  0.19063  0.81933  0.67587  1
 H  H7  1  0.67587  0.19063  0.81933  1
 H  H8  1  0.19317  0.41125  0.05087  1
 H  H9  1  0.05087  0.19317  0.41125  1
 H  H10  1  0.41125  0.05087  0.19317  1
 H  H11  1  0.80683  0.58875  0.94913  1
 H  H12  1  0.32413  0.80937  0.18067  1
 Mn  Mn1  1  0.00000  0.00000  0.00000  1
 O  O1  1  0.69498  0.05939  0.87845  1
 O  O2  1  0.87845  0.69498  0.05939  1
 O  O3  1  0.30502  0.94061  0.12155  1
 O  O4  1  0.94061  0.12155  0.30502  1
 O  O5  1  0.12155  0.30502  0.94061  1
 O  O6  1  0.05939  0.87845  0.69498  1
 Ti  Ti1  1  0.50000  0.50000  0.50000  1
