CIF file written using JARVIS-Tools package.
data_Cu4O3
_symmetry_space_group_name_H-M  'I4_1/amd'
_cell_length_a       5.90571
_cell_length_b       5.90571
_cell_length_c       6.46662
_cell_angle_alpha    117.17
_cell_angle_beta     117.17
_cell_angle_gamma    90

_symmetry_Int_Tables_number  141
_chemical_formula_structural  Cu4O3
_chemical_formula_sum  Cu8O6
_cell_volume  172.20572534607854
_cell_formula_units_Z  2
loop_
  _symmetry_equiv_pos_site_id
 _symmetry_equiv_pos_as_xyz
 1  'x, y, z'
loop_
 _atom_site_type_symbol
 _atom_site_label
 _atom_site_symmetry_multiplicity
 _atom_site_fract_x
 _atom_site_fract_y
 _atom_site_fract_z
 _atom_site_fract_occupancy
 Cu  Cu1  1  0.50000  0.50000  0.50000  1
 Cu  Cu2  1  0.50000  -0.00000  -0.00000  1
 Cu  Cu3  1  0.00000  0.50000  0.50000  1
 Cu  Cu4  1  0.50000  0.50000  -0.00000  1
 Cu  Cu5  1  0.00000  0.50000  -0.00000  1
 Cu  Cu6  1  -0.00000  0.00000  0.50000  1
 Cu  Cu7  1  0.50000  -0.00000  0.50000  1
 Cu  Cu8  1  0.00000  0.00000  0.00000  1
 O  O1  1  0.62500  0.37500  0.25000  1
 O  O2  1  0.37500  0.62500  0.75000  1
 O  O3  1  0.63797  0.88797  0.27595  1
 O  O4  1  0.88797  0.63797  0.77595  1
 O  O5  1  0.36203  0.11203  0.72405  1
 O  O6  1  0.11203  0.36203  0.22405  1
