CIF file written using JARVIS-Tools package.
data_Ba3ErRu2O9
_symmetry_space_group_name_H-M  'P6_3/mmc'
_cell_length_a       5.90974
_cell_length_b       5.90974
_cell_length_c       14.4459
_cell_angle_alpha    90
_cell_angle_beta     90
_cell_angle_gamma    120

_symmetry_Int_Tables_number  194
_chemical_formula_structural  Ba3ErRu2O9
_chemical_formula_sum  Ba6Er2Ru4O8
_cell_volume  436.92854831382795
_cell_formula_units_Z  2
loop_
  _symmetry_equiv_pos_site_id
 _symmetry_equiv_pos_as_xyz
 1  'x, y, z'
loop_
 _atom_site_type_symbol
 _atom_site_label
 _atom_site_symmetry_multiplicity
 _atom_site_fract_x
 _atom_site_fract_y
 _atom_site_fract_z
 _atom_site_fract_occupancy
 Ba  Ba1  1  0.00000  0.00000  0.75000  1
 Ba  Ba2  1  0.00000  0.00000  0.25000  1
 Ba  Ba3  1  0.33333  0.66667  0.09365  1
 Ba  Ba4  1  0.66667  0.33333  0.59365  1
 Ba  Ba5  1  0.66667  0.33333  0.90635  1
 Ba  Ba6  1  0.33333  0.66667  0.40635  1
 Er  Er1  1  0.00000  0.00000  0.00000  1
 Er  Er2  1  0.00000  0.00000  0.50000  1
 O  O1  1  0.98158  0.49079  0.25000  1
 O  O2  1  0.17575  0.82425  0.58750  1
 O  O3  1  0.50921  0.49079  0.25000  1
 O  O4  1  0.49079  0.98158  0.75000  1
 O  O5  1  0.49079  0.50921  0.75000  1
 O  O6  1  0.17575  0.82425  0.91250  1
 O  O7  1  0.50921  0.01842  0.25000  1
 O  O8  1  0.35150  0.17575  0.08750  1
 O  O9  1  0.01842  0.50921  0.75000  1
 O  O10  1  0.64850  0.82425  0.58750  1
 O  O11  1  0.82425  0.17575  0.08750  1
 O  O12  1  0.82425  0.17575  0.41250  1
 O  O13  1  0.82425  0.64850  0.41250  1
 O  O14  1  0.82425  0.64850  0.08750  1
 O  O15  1  0.35150  0.17575  0.41250  1
 O  O16  1  0.64850  0.82425  0.91250  1
 O  O17  1  0.17575  0.35150  0.58750  1
 O  O18  1  0.17575  0.35150  0.91250  1
 Ru  Ru1  1  0.33333  0.66667  0.83595  1
 Ru  Ru2  1  0.66667  0.33333  0.33595  1
 Ru  Ru3  1  0.66667  0.33333  0.16405  1
 Ru  Ru4  1  0.33333  0.66667  0.66405  1
