CIF file written using JARVIS-Tools package.
data_ScSnPt
_symmetry_space_group_name_H-M  'P-62c'
_cell_length_a       7.45464
_cell_length_b       7.45464
_cell_length_c       7.37188
_cell_angle_alpha    90
_cell_angle_beta     90
_cell_angle_gamma    120

_symmetry_Int_Tables_number  190
_chemical_formula_structural  ScSnPt
_chemical_formula_sum  Sc6Sn6Pt6
_cell_volume  354.7827938809414
_cell_formula_units_Z  6
loop_
  _symmetry_equiv_pos_site_id
 _symmetry_equiv_pos_as_xyz
 1  'x, y, z'
loop_
 _atom_site_type_symbol
 _atom_site_label
 _atom_site_symmetry_multiplicity
 _atom_site_fract_x
 _atom_site_fract_y
 _atom_site_fract_z
 _atom_site_fract_occupancy
 Pt  Pt1  1  0.66667  0.33333  0.46317  1
 Pt  Pt2  1  0.33333  0.66667  0.53683  1
 Pt  Pt3  1  0.66667  0.33333  0.03683  1
 Pt  Pt4  1  0.00000  0.00000  0.75000  1
 Pt  Pt5  1  0.00000  0.00000  0.25000  1
 Pt  Pt6  1  0.33333  0.66667  0.96317  1
 Sc  Sc1  1  0.98176  0.59627  0.75000  1
 Sc  Sc2  1  0.59627  0.98176  0.25000  1
 Sc  Sc3  1  0.38550  0.40373  0.25000  1
 Sc  Sc4  1  0.01824  0.61450  0.25000  1
 Sc  Sc5  1  0.61450  0.01824  0.75000  1
 Sc  Sc6  1  0.40373  0.38550  0.75000  1
 Sn  Sn1  1  0.72560  0.72560  0.50000  1
 Sn  Sn2  1  0.27440  0.00000  0.50000  1
 Sn  Sn3  1  0.27440  0.00000  0.00000  1
 Sn  Sn4  1  0.72560  0.72560  0.00000  1
 Sn  Sn5  1  0.00000  0.27440  0.00000  1
 Sn  Sn6  1  0.00000  0.27440  0.50000  1
