CIF file written using JARVIS-Tools package.
data_YCo3
_symmetry_space_group_name_H-M  'R-3m'
_cell_length_a       8.51085
_cell_length_b       8.51084
_cell_length_c       8.51084
_cell_angle_alpha    33.5622
_cell_angle_beta     33.5622
_cell_angle_gamma    33.5622

_symmetry_Int_Tables_number  166
_chemical_formula_structural  YCo3
_chemical_formula_sum  Y3Co9
_cell_volume  167.82859677209538
_cell_formula_units_Z  3
loop_
  _symmetry_equiv_pos_site_id
 _symmetry_equiv_pos_as_xyz
 1  'x, y, z'
loop_
 _atom_site_type_symbol
 _atom_site_label
 _atom_site_symmetry_multiplicity
 _atom_site_fract_x
 _atom_site_fract_y
 _atom_site_fract_z
 _atom_site_fract_occupancy
 Co  Co1  1  0.42234  0.42234  0.91606  1
 Co  Co2  1  0.42234  0.91606  0.42234  1
 Co  Co3  1  0.91606  0.42234  0.42234  1
 Co  Co4  1  0.50000  0.50000  0.50000  1
 Co  Co5  1  0.33211  0.33211  0.33211  1
 Co  Co6  1  0.66789  0.66789  0.66789  1
 Co  Co7  1  0.57766  0.08394  0.57766  1
 Co  Co8  1  0.57766  0.57766  0.08394  1
 Co  Co9  1  0.08394  0.57766  0.57766  1
 Y  Y1  1  0.86079  0.86079  0.86079  1
 Y  Y2  1  0.13921  0.13921  0.13921  1
 Y  Y3  1  0.00000  0.00000  0.00000  1
