CIF file written using JARVIS-Tools package.
data_U2Co21B6
_symmetry_space_group_name_H-M  'Fm-3m'
_cell_length_a       7.49512
_cell_length_b       7.49513
_cell_length_c       7.49513
_cell_angle_alpha    60
_cell_angle_beta     60
_cell_angle_gamma    60

_symmetry_Int_Tables_number  225
_chemical_formula_structural  U2Co21B6
_chemical_formula_sum  U2Co2B6
_cell_volume  297.72996824715
_cell_formula_units_Z  1
loop_
  _symmetry_equiv_pos_site_id
 _symmetry_equiv_pos_as_xyz
 1  'x, y, z'
loop_
 _atom_site_type_symbol
 _atom_site_label
 _atom_site_symmetry_multiplicity
 _atom_site_fract_x
 _atom_site_fract_y
 _atom_site_fract_z
 _atom_site_fract_occupancy
 B  B1  1  0.27410  0.72590  0.72590  1
 B  B2  1  0.27410  0.27410  0.72590  1
 B  B3  1  0.72590  0.72590  0.27410  1
 B  B4  1  0.72590  0.27410  0.27410  1
 B  B5  1  0.27410  0.72590  0.27410  1
 B  B6  1  0.72590  0.27410  0.72590  1
 Co  Co1  1  0.38327  0.85019  0.38327  1
 Co  Co2  1  0.33586  -0.00000  -0.00000  1
 Co  Co3  1  0.61673  0.61673  0.61673  1
 Co  Co4  1  0.38327  0.38327  0.85019  1
 Co  Co5  1  0.14981  0.61673  0.61673  1
 Co  Co6  1  0.85019  0.38327  0.38327  1
 Co  Co7  1  0.61673  0.14981  0.61673  1
 Co  Co8  1  0.33586  0.66414  -0.00000  1
 Co  Co9  1  0.61673  0.61673  0.14981  1
 Co  Co10  1  0.00000  0.00000  0.33586  1
 Co  Co11  1  -0.00000  0.33586  -0.00000  1
 Co  Co12  1  -0.00000  0.33586  0.66414  1
 Co  Co13  1  0.00000  0.66414  0.33586  1
 Co  Co14  1  0.33586  -0.00000  0.66414  1
 Co  Co15  1  0.66414  0.33586  0.00000  1
 Co  Co16  1  0.00000  0.66414  0.00000  1
 Co  Co17  1  0.66414  0.00000  0.33586  1
 Co  Co18  1  0.00000  0.00000  0.66414  1
 Co  Co19  1  0.66414  0.00000  0.00000  1
 Co  Co20  1  0.00000  0.00000  0.00000  1
 Co  Co21  1  0.38327  0.38327  0.38327  1
 U  U1  1  0.25000  0.25000  0.25000  1
 U  U2  1  0.75000  0.75000  0.75000  1
