CIF file written using JARVIS-Tools package.
data_TaF5
_symmetry_space_group_name_H-M  'Cmcm'
_cell_length_a       3.62745
_cell_length_b       5.73353
_cell_length_c       8.31266
_cell_angle_alpha    90
_cell_angle_beta     90
_cell_angle_gamma    108.442

_symmetry_Int_Tables_number  63
_chemical_formula_structural  TaF5
_chemical_formula_sum  Ta2F0
_cell_volume  164.0094300730382
_cell_formula_units_Z  2
loop_
  _symmetry_equiv_pos_site_id
 _symmetry_equiv_pos_as_xyz
 1  'x, y, z'
loop_
 _atom_site_type_symbol
 _atom_site_label
 _atom_site_symmetry_multiplicity
 _atom_site_fract_x
 _atom_site_fract_y
 _atom_site_fract_z
 _atom_site_fract_occupancy
 F  F1  1  0.47013  0.94025  0.25000  1
 F  F2  1  0.52987  0.05975  0.75000  1
 F  F3  1  0.07642  0.15284  0.58534  1
 F  F4  1  0.92358  0.84716  0.41466  1
 F  F5  1  0.33874  0.67749  0.91556  1
 F  F6  1  0.66126  0.32251  0.08444  1
 F  F7  1  0.66126  0.32251  0.41556  1
 F  F8  1  0.33874  0.67749  0.58444  1
 F  F9  1  0.07642  0.15284  0.91466  1
 F  F10  1  0.92358  0.84716  0.08534  1
 Ta  Ta1  1  0.50000  0.00000  0.50000  1
 Ta  Ta2  1  0.50000  0.00000  0.00000  1
