CIF file written using JARVIS-Tools package.
data_Sm2Te4O11
_symmetry_space_group_name_H-M  'C2/c'
_cell_length_a       5.20941
_cell_length_b       6.82398
_cell_length_c       15.9191
_cell_angle_alpha    80.7061
_cell_angle_beta     80.5829
_cell_angle_gamma    67.5611

_symmetry_Int_Tables_number  15
_chemical_formula_structural  Sm2Te4O11
_chemical_formula_sum  Sm4Te8O22
_cell_volume  512.9581320651023
_cell_formula_units_Z  2
loop_
  _symmetry_equiv_pos_site_id
 _symmetry_equiv_pos_as_xyz
 1  'x, y, z'
loop_
 _atom_site_type_symbol
 _atom_site_label
 _atom_site_symmetry_multiplicity
 _atom_site_fract_x
 _atom_site_fract_y
 _atom_site_fract_z
 _atom_site_fract_occupancy
 O  O1  1  0.24861  0.02870  0.55572  1
 O  O2  1  0.63771  0.75000  0.25000  1
 O  O3  1  0.68591  0.31392  0.54602  1
 O  O4  1  0.54585  0.18608  0.95398  1
 O  O5  1  0.31409  0.68608  0.45398  1
 O  O6  1  0.45415  0.81392  0.04602  1
 O  O7  1  0.71090  0.87070  0.82819  1
 O  O8  1  0.40978  0.62930  0.67181  1
 O  O9  1  0.28910  0.12930  0.17181  1
 O  O10  1  0.59022  0.37070  0.32819  1
 O  O11  1  0.81215  0.87025  0.63009  1
 O  O12  1  0.31249  0.62975  0.86991  1
 O  O13  1  0.88542  0.95199  0.09882  1
 O  O14  1  0.93624  0.54801  0.40118  1
 O  O15  1  0.11458  0.04801  0.90118  1
 O  O16  1  0.36229  0.25000  0.75000  1
 O  O17  1  0.75139  0.97130  0.44428  1
 O  O18  1  0.83303  0.47130  0.94428  1
 O  O19  1  0.68751  0.37025  0.13009  1
 O  O20  1  0.18785  0.12975  0.36991  1
 O  O21  1  0.16697  0.52870  0.05572  1
 O  O22  1  0.06376  0.45199  0.59882  1
 Sm  Sm1  1  0.12580  0.20040  0.03681  1
 Sm  Sm2  1  0.87420  0.79960  0.96319  1
 Sm  Sm3  1  0.36301  0.29960  0.46319  1
 Sm  Sm4  1  0.63699  0.70040  0.53681  1
 Te  Te1  1  0.35038  0.95666  0.79746  1
 Te  Te2  1  0.89551  0.45666  0.29746  1
 Te  Te3  1  0.64962  0.04334  0.20254  1
 Te  Te4  1  0.65283  0.38214  0.87127  1
 Te  Te5  1  0.90625  0.11786  0.62873  1
 Te  Te6  1  0.09375  0.88214  0.37127  1
 Te  Te7  1  0.34717  0.61786  0.12873  1
 Te  Te8  1  0.10449  0.54334  0.70254  1
