CIF file written using JARVIS-Tools package.
data_TiCr2
_symmetry_space_group_name_H-M  'P6_3/mmc'
_cell_length_a       4.86832
_cell_length_b       4.86832
_cell_length_c       7.78637
_cell_angle_alpha    90
_cell_angle_beta     90
_cell_angle_gamma    120

_symmetry_Int_Tables_number  194
_chemical_formula_structural  TiCr2
_chemical_formula_sum  Ti4Cr8
_cell_volume  159.81774038308328
_cell_formula_units_Z  4
loop_
  _symmetry_equiv_pos_site_id
 _symmetry_equiv_pos_as_xyz
 1  'x, y, z'
loop_
 _atom_site_type_symbol
 _atom_site_label
 _atom_site_symmetry_multiplicity
 _atom_site_fract_x
 _atom_site_fract_y
 _atom_site_fract_z
 _atom_site_fract_occupancy
 Cr  Cr1  1  0.17014  0.34029  0.25000  1
 Cr  Cr2  1  0.82986  0.65971  0.75000  1
 Cr  Cr3  1  0.82986  0.17014  0.75000  1
 Cr  Cr4  1  0.65971  0.82986  0.25000  1
 Cr  Cr5  1  0.17014  0.82986  0.25000  1
 Cr  Cr6  1  0.34029  0.17014  0.75000  1
 Cr  Cr7  1  0.00000  0.00000  0.50000  1
 Cr  Cr8  1  0.00000  0.00000  0.00000  1
 Ti  Ti1  1  0.33333  0.66667  0.56048  1
 Ti  Ti2  1  0.66667  0.33333  0.06048  1
 Ti  Ti3  1  0.66667  0.33333  0.43952  1
 Ti  Ti4  1  0.33333  0.66667  0.93952  1
