CIF file written using JARVIS-Tools package.
data_CdBiS2Cl
_symmetry_space_group_name_H-M  'Pnma'
_cell_length_a       4.0151
_cell_length_b       9.49369
_cell_length_c       12.7038
_cell_angle_alpha    90
_cell_angle_beta     90
_cell_angle_gamma    90

_symmetry_Int_Tables_number  62
_chemical_formula_structural  CdBiS2Cl
_chemical_formula_sum  Cd4Bi4S8Cl4
_cell_volume  484.24528346276304
_cell_formula_units_Z  4
loop_
  _symmetry_equiv_pos_site_id
 _symmetry_equiv_pos_as_xyz
 1  'x, y, z'
loop_
 _atom_site_type_symbol
 _atom_site_label
 _atom_site_symmetry_multiplicity
 _atom_site_fract_x
 _atom_site_fract_y
 _atom_site_fract_z
 _atom_site_fract_occupancy
 Bi  Bi1  1  0.25000  0.30047  0.97629  1
 Bi  Bi2  1  0.25000  0.80047  0.52371  1
 Bi  Bi3  1  0.75000  0.19953  0.47629  1
 Bi  Bi4  1  0.75000  0.69953  0.02371  1
 Cd  Cd1  1  0.75000  0.49654  0.73830  1
 Cd  Cd2  1  0.25000  0.50346  0.26170  1
 Cd  Cd3  1  0.75000  0.99654  0.76170  1
 Cd  Cd4  1  0.25000  0.00346  0.23830  1
 Cl  Cl1  1  0.75000  0.57245  0.39586  1
 Cl  Cl2  1  0.25000  0.42755  0.60414  1
 Cl  Cl3  1  0.25000  0.92755  0.89586  1
 Cl  Cl4  1  0.75000  0.07245  0.10414  1
 S  S1  1  0.75000  0.75192  0.66793  1
 S  S2  1  0.25000  0.24808  0.33207  1
 S  S3  1  0.75000  0.94607  0.38910  1
 S  S4  1  0.75000  0.25192  0.83207  1
 S  S5  1  0.25000  0.05393  0.61090  1
 S  S6  1  0.25000  0.74808  0.16793  1
 S  S7  1  0.75000  0.44607  0.11090  1
 S  S8  1  0.25000  0.55393  0.88910  1
