CIF file written using JARVIS-Tools package.
data_Li6Zr2O7
_symmetry_space_group_name_H-M  'C2/c'
_cell_length_a       5.99692
_cell_length_b       6.02655
_cell_length_c       10.2508
_cell_angle_alpha    98.8251
_cell_angle_beta     90
_cell_angle_gamma    119.838

_symmetry_Int_Tables_number  15
_chemical_formula_structural  Li6Zr2O7
_chemical_formula_sum  Li2Zr4O4
_cell_volume  316.2955877970642
_cell_formula_units_Z  2
loop_
  _symmetry_equiv_pos_site_id
 _symmetry_equiv_pos_as_xyz
 1  'x, y, z'
loop_
 _atom_site_type_symbol
 _atom_site_label
 _atom_site_symmetry_multiplicity
 _atom_site_fract_x
 _atom_site_fract_y
 _atom_site_fract_z
 _atom_site_fract_occupancy
 Li  Li1  1  0.41511  0.11720  0.58342  1
 Li  Li2  1  0.70209  0.11720  0.08342  1
 Li  Li3  1  0.96583  0.13552  0.60067  1
 Li  Li4  1  0.03417  0.86448  0.39933  1
 Li  Li5  1  0.42210  0.58787  0.60365  1
 Li  Li6  1  0.83423  0.41213  0.89635  1
 Li  Li7  1  0.16969  0.13552  0.10067  1
 Li  Li8  1  0.16577  0.58787  0.10365  1
 Li  Li9  1  0.83031  0.86448  0.89933  1
 Li  Li10  1  0.58489  0.88280  0.41658  1
 Li  Li11  1  0.29791  0.88280  0.91658  1
 Li  Li12  1  0.57790  0.41213  0.39635  1
 O  O1  1  0.23764  0.73505  0.49718  1
 O  O2  1  0.35464  0.48581  0.24023  1
 O  O3  1  0.75587  0.75859  0.52205  1
 O  O4  1  0.99728  0.24141  0.97795  1
 O  O5  1  0.24413  0.24141  0.47795  1
 O  O6  1  0.00272  0.75859  0.02205  1
 O  O7  1  0.50259  0.26495  0.00282  1
 O  O8  1  0.49741  0.73505  0.99718  1
 O  O9  1  0.13118  0.48581  0.74023  1
 O  O10  1  0.16677  0.00000  0.75000  1
 O  O11  1  0.83323  0.00000  0.25000  1
 O  O12  1  0.64536  0.51419  0.75977  1
 O  O13  1  0.86882  0.51419  0.25977  1
 O  O14  1  0.76236  0.26495  0.50282  1
 Zr  Zr1  1  0.69508  0.63382  0.13602  1
 Zr  Zr2  1  0.30492  0.36618  0.86398  1
 Zr  Zr3  1  0.93874  0.63382  0.63602  1
 Zr  Zr4  1  0.06126  0.36618  0.36398  1
