CIF file written using JARVIS-Tools package.
data_LiBiO2
_symmetry_space_group_name_H-M  'Ibam'
_cell_length_a       4.75437
_cell_length_b       5.28111
_cell_length_c       9.81914
_cell_angle_alpha    105.601
_cell_angle_beta     104.011
_cell_angle_gamma    90.0004

_symmetry_Int_Tables_number  72
_chemical_formula_structural  LiBiO2
_chemical_formula_sum  Li4Bi4O8
_cell_volume  229.83550937773663
_cell_formula_units_Z  4
loop_
  _symmetry_equiv_pos_site_id
 _symmetry_equiv_pos_as_xyz
 1  'x, y, z'
loop_
 _atom_site_type_symbol
 _atom_site_label
 _atom_site_symmetry_multiplicity
 _atom_site_fract_x
 _atom_site_fract_y
 _atom_site_fract_z
 _atom_site_fract_occupancy
 Bi  Bi1  1  0.08856  0.33317  0.17719  1
 Bi  Bi2  1  0.91144  0.66683  0.82281  1
 Bi  Bi3  1  0.41144  0.15599  0.82281  1
 Bi  Bi4  1  0.58856  0.84401  0.17719  1
 Li  Li1  1  0.99926  0.24926  0.49851  1
 Li  Li2  1  0.50074  0.75074  0.50149  1
 Li  Li3  1  0.00074  0.75074  0.50149  1
 Li  Li4  1  0.49926  0.24926  0.49851  1
 O  O1  1  0.20254  0.45384  0.40508  1
 O  O2  1  0.79746  0.54616  0.59492  1
 O  O3  1  0.29746  0.04876  0.59492  1
 O  O4  1  0.70254  0.95124  0.40508  1
 O  O5  1  0.07969  0.91542  0.15892  1
 O  O6  1  0.92031  0.08458  0.84108  1
 O  O7  1  0.42030  0.75651  0.84108  1
 O  O8  1  0.57970  0.24349  0.15892  1
