CIF file written using JARVIS-Tools package.
data_P4S7
_symmetry_space_group_name_H-M  'P2_1/c'
_cell_length_a       6.76985
_cell_length_b       17.4353
_cell_length_c       10.9564
_cell_angle_alpha    90
_cell_angle_beta     125.654
_cell_angle_gamma    90

_symmetry_Int_Tables_number  14
_chemical_formula_structural  P4S7
_chemical_formula_sum  P6S28
_cell_volume  1050.8141343037446
_cell_formula_units_Z  4
loop_
  _symmetry_equiv_pos_site_id
 _symmetry_equiv_pos_as_xyz
 1  'x, y, z'
loop_
 _atom_site_type_symbol
 _atom_site_label
 _atom_site_symmetry_multiplicity
 _atom_site_fract_x
 _atom_site_fract_y
 _atom_site_fract_z
 _atom_site_fract_occupancy
 P  P1  1  0.43668  0.61903  0.71823  1
 P  P2  1  0.11604  0.79162  0.14282  1
 P  P3  1  0.56332  0.38097  0.28177  1
 P  P4  1  0.43668  0.88097  0.21823  1
 P  P5  1  0.11604  0.70838  0.64282  1
 P  P6  1  0.88396  0.20838  0.85718  1
 P  P7  1  0.88396  0.29162  0.35718  1
 P  P8  1  0.57965  0.33250  -0.00532  1
 P  P9  1  0.56332  0.11903  0.78177  1
 P  P10  1  0.00012  0.03842  0.77279  1
 P  P11  1  0.00012  0.46158  0.27279  1
 P  P12  1  -0.00012  0.96158  0.22721  1
 P  P13  1  0.42035  0.66750  0.00532  1
 P  P14  1  0.57965  0.16750  0.49468  1
 P  P15  1  0.42035  0.83250  0.50532  1
 P  P16  1  -0.00012  0.53842  0.72721  1
 S  S1  1  0.41769  0.30457  0.78506  1
 S  S2  1  0.41769  0.19543  0.28506  1
 S  S3  1  0.58231  0.69543  0.21494  1
 S  S4  1  0.78486  0.04561  0.19114  1
 S  S5  1  0.21514  0.54561  0.30886  1
 S  S6  1  0.82351  0.42499  0.04442  1
 S  S7  1  0.78486  0.45439  0.69114  1
 S  S8  1  0.17649  0.92499  0.45558  1
 S  S9  1  0.82351  0.07501  0.54442  1
 S  S10  1  0.17649  0.57501  0.95558  1
 S  S11  1  0.58231  0.80457  0.71494  1
 S  S12  1  0.33136  0.36425  0.04316  1
 S  S13  1  0.21514  0.95439  0.80886  1
 S  S14  1  0.22426  0.74226  0.35306  1
 S  S15  1  0.22426  0.75774  0.85306  1
 S  S16  1  0.73105  0.48920  0.30582  1
 S  S17  1  0.33136  0.13575  0.54316  1
 S  S18  1  0.66864  0.63575  0.95684  1
 S  S19  1  0.77574  0.24226  0.14694  1
 S  S20  1  0.77574  0.25774  0.64694  1
 S  S21  1  0.26895  0.51080  0.69418  1
 S  S22  1  0.82215  0.86648  0.08339  1
 S  S23  1  0.17785  0.36648  0.41661  1
 S  S24  1  0.17785  0.13352  0.91661  1
 S  S25  1  0.82215  0.63352  0.58339  1
 S  S26  1  0.26895  0.98920  0.19418  1
 S  S27  1  0.73105  0.01080  0.80582  1
 S  S28  1  0.66864  0.86425  0.45684  1
