CIF file written using JARVIS-Tools package.
data_C5N4
_symmetry_space_group_name_H-M  'R3c'
_cell_length_a       6.30904
_cell_length_b       6.30903
_cell_length_c       6.30904
_cell_angle_alpha    87.5306
_cell_angle_beta     87.5306
_cell_angle_gamma    87.5307

_symmetry_Int_Tables_number  161
_chemical_formula_structural  C5N4
_chemical_formula_sum  C0N8
_cell_volume  250.44455986045534
_cell_formula_units_Z  2
loop_
  _symmetry_equiv_pos_site_id
 _symmetry_equiv_pos_as_xyz
 1  'x, y, z'
loop_
 _atom_site_type_symbol
 _atom_site_label
 _atom_site_symmetry_multiplicity
 _atom_site_fract_x
 _atom_site_fract_y
 _atom_site_fract_z
 _atom_site_fract_occupancy
 C  C1  1  0.44235  0.62400  0.30330  1
 C  C2  1  0.62400  0.30330  0.44235  1
 C  C3  1  0.80330  0.12400  0.94235  1
 C  C4  1  0.12400  0.94235  0.80330  1
 C  C5  1  0.49953  0.49953  0.49953  1
 C  C6  1  0.94235  0.80330  0.12400  1
 C  C7  1  0.99953  0.99953  0.99953  1
 C  C8  1  0.30330  0.44235  0.62400  1
 C  C9  1  0.12993  0.12993  0.12993  1
 C  C10  1  0.62993  0.62993  0.62993  1
 N  N1  1  0.22369  0.89686  0.65246  1
 N  N2  1  0.73148  0.73148  0.73148  1
 N  N3  1  0.39686  0.72369  0.15246  1
 N  N4  1  0.65246  0.22369  0.89686  1
 N  N5  1  0.89686  0.65246  0.22369  1
 N  N6  1  0.15246  0.39686  0.72369  1
 N  N7  1  0.23148  0.23148  0.23148  1
 N  N8  1  0.72369  0.15246  0.39686  1
