CIF file written using JARVIS-Tools package.
data_Nb6Co16Si7
_symmetry_space_group_name_H-M  'Fm-3m'
_cell_length_a       7.92938
_cell_length_b       7.92938
_cell_length_c       7.92938
_cell_angle_alpha    60
_cell_angle_beta     60
_cell_angle_gamma    60

_symmetry_Int_Tables_number  225
_chemical_formula_structural  Nb6Co16Si7
_chemical_formula_sum  Nb6Co6Si7
_cell_volume  352.5348064835747
_cell_formula_units_Z  1
loop_
  _symmetry_equiv_pos_site_id
 _symmetry_equiv_pos_as_xyz
 1  'x, y, z'
loop_
 _atom_site_type_symbol
 _atom_site_label
 _atom_site_symmetry_multiplicity
 _atom_site_fract_x
 _atom_site_fract_y
 _atom_site_fract_z
 _atom_site_fract_occupancy
 Co  Co1  1  0.14355  0.61882  0.61882  1
 Co  Co2  1  0.16608  0.50175  0.16608  1
 Co  Co3  1  0.38118  0.38118  0.38118  1
 Co  Co4  1  0.83392  0.83392  0.83392  1
 Co  Co5  1  0.16608  0.16608  0.50175  1
 Co  Co6  1  0.49825  0.83392  0.83392  1
 Co  Co7  1  0.16608  0.16608  0.16608  1
 Co  Co8  1  0.61882  0.61882  0.61882  1
 Co  Co9  1  0.38118  0.85645  0.38118  1
 Co  Co10  1  0.85645  0.38118  0.38118  1
 Co  Co11  1  0.61882  0.14355  0.61882  1
 Co  Co12  1  0.38118  0.38118  0.85645  1
 Co  Co13  1  0.61882  0.61882  0.14355  1
 Co  Co14  1  0.83392  0.83392  0.49825  1
 Co  Co15  1  0.50175  0.16608  0.16608  1
 Co  Co16  1  0.83392  0.49825  0.83392  1
 Nb  Nb1  1  0.20308  0.79692  0.79692  1
 Nb  Nb2  1  0.79692  0.20308  0.20308  1
 Nb  Nb3  1  0.79692  0.79692  0.20308  1
 Nb  Nb4  1  0.20308  0.20308  0.79692  1
 Nb  Nb5  1  0.79692  0.20308  0.79692  1
 Nb  Nb6  1  0.20308  0.79692  0.20308  1
 Si  Si1  1  -0.00000  0.50000  0.00000  1
 Si  Si2  1  0.50000  0.50000  0.50000  1
 Si  Si3  1  0.50000  0.00000  0.00000  1
 Si  Si4  1  0.00000  0.00000  0.50000  1
 Si  Si5  1  0.50000  0.50000  0.00000  1
 Si  Si6  1  -0.00000  0.50000  0.50000  1
 Si  Si7  1  0.50000  0.00000  0.50000  1
