CIF file written using JARVIS-Tools package.
data_PrAl7Au3
_symmetry_space_group_name_H-M  'R-3c'
_cell_length_a       8.51448
_cell_length_b       8.51448
_cell_length_c       8.51448
_cell_angle_alpha    57.4688
_cell_angle_beta     57.4688
_cell_angle_gamma    57.4688

_symmetry_Int_Tables_number  167
_chemical_formula_structural  PrAl7Au3
_chemical_formula_sum  Pr2Al4Au6
_cell_volume  411.0610878547489
_cell_formula_units_Z  2
loop_
  _symmetry_equiv_pos_site_id
 _symmetry_equiv_pos_as_xyz
 1  'x, y, z'
loop_
 _atom_site_type_symbol
 _atom_site_label
 _atom_site_symmetry_multiplicity
 _atom_site_fract_x
 _atom_site_fract_y
 _atom_site_fract_z
 _atom_site_fract_occupancy
 Al  Al1  1  0.85233  0.66918  0.06869  1
 Al  Al2  1  0.43131  0.83082  0.64767  1
 Al  Al3  1  0.83082  0.64767  0.43131  1
 Al  Al4  1  0.66918  0.06869  0.85233  1
 Al  Al5  1  0.06869  0.85233  0.66918  1
 Al  Al6  1  0.35233  0.56869  0.16918  1
 Al  Al7  1  0.56869  0.16918  0.35233  1
 Al  Al8  1  0.14767  0.33082  0.93131  1
 Al  Al9  1  0.75000  0.75000  0.75000  1
 Al  Al10  1  0.93131  0.14767  0.33082  1
 Al  Al11  1  0.33082  0.93131  0.14767  1
 Al  Al12  1  0.16918  0.35233  0.56869  1
 Al  Al13  1  0.64767  0.43131  0.83082  1
 Al  Al14  1  0.25000  0.25000  0.25000  1
 Au  Au1  1  0.75000  0.42981  0.07019  1
 Au  Au2  1  0.42981  0.07019  0.75000  1
 Au  Au3  1  0.07019  0.75000  0.42981  1
 Au  Au4  1  0.57019  0.92981  0.25000  1
 Au  Au5  1  0.92981  0.25000  0.57019  1
 Au  Au6  1  0.25000  0.57019  0.92981  1
 Pr  Pr1  1  0.50000  0.50000  0.50000  1
 Pr  Pr2  1  0.00000  0.00000  0.00000  1
