CIF file written using JARVIS-Tools package.
data_P3Au2
_symmetry_space_group_name_H-M  'C2/m'
_cell_length_a       4.77636
_cell_length_b       5.92095
_cell_length_c       7.86116
_cell_angle_alpha    67.877
_cell_angle_beta     83.2758
_cell_angle_gamma    71.8855

_symmetry_Int_Tables_number  12
_chemical_formula_structural  P3Au2
_chemical_formula_sum  P6Au4
_cell_volume  195.74345942186673
_cell_formula_units_Z  2
loop_
  _symmetry_equiv_pos_site_id
 _symmetry_equiv_pos_as_xyz
 1  'x, y, z'
loop_
 _atom_site_type_symbol
 _atom_site_label
 _atom_site_symmetry_multiplicity
 _atom_site_fract_x
 _atom_site_fract_y
 _atom_site_fract_z
 _atom_site_fract_occupancy
 Au  Au1  1  0.00000  0.88958  0.22084  1
 Au  Au2  1  -0.00000  0.11042  0.77916  1
 Au  Au3  1  0.50000  0.50000  0.50000  1
 Au  Au4  1  0.50000  -0.00000  0.50000  1
 P  P1  1  0.52649  0.68598  -0.00000  1
 P  P2  1  0.47351  0.31402  0.00000  1
 P  P3  1  0.18010  0.44923  0.75602  1
 P  P4  1  0.81990  0.79475  0.75602  1
 P  P5  1  0.18010  0.20525  0.24398  1
 P  P6  1  0.81990  0.55077  0.24398  1
