CIF file written using JARVIS-Tools package.
data_ReSe2Cl12
_symmetry_space_group_name_H-M  'Fdd2'
_cell_length_a       8.51327
_cell_length_b       8.51327
_cell_length_c       12.097
_cell_angle_alpha    108.727
_cell_angle_beta     108.727
_cell_angle_gamma    95.024

_symmetry_Int_Tables_number  43
_chemical_formula_structural  ReSe2Cl12
_chemical_formula_sum  Re2Se4Cl24
_cell_volume  768.392513931346
_cell_formula_units_Z  2
loop_
  _symmetry_equiv_pos_site_id
 _symmetry_equiv_pos_as_xyz
 1  'x, y, z'
loop_
 _atom_site_type_symbol
 _atom_site_label
 _atom_site_symmetry_multiplicity
 _atom_site_fract_x
 _atom_site_fract_y
 _atom_site_fract_z
 _atom_site_fract_occupancy
 Cl  Cl1  1  0.28021  0.46365  0.49936  1
 Cl  Cl2  1  0.89160  0.22080  0.34658  1
 Cl  Cl3  1  0.70897  0.55514  0.49927  1
 Cl  Cl4  1  0.63212  0.79497  0.18638  1
 Cl  Cl5  1  0.39643  0.70516  0.33905  1
 Cl  Cl6  1  0.04232  0.86457  0.15998  1
 Cl  Cl7  1  0.30514  0.95897  -0.00073  1
 Cl  Cl8  1  0.55425  0.39141  0.18638  1
 Cl  Cl9  1  0.38388  0.19261  0.83905  1
 Cl  Cl10  1  0.21365  0.53021  0.99936  1
 Cl  Cl11  1  0.79030  0.94413  0.49927  1
 Cl  Cl12  1  0.78572  0.46915  0.99936  1
 Cl  Cl13  1  0.11766  0.29541  0.15998  1
 Cl  Cl14  1  0.87578  0.70498  0.84658  1
 Cl  Cl15  1  0.45516  0.64643  0.83905  1
 Cl  Cl16  1  0.94261  0.63388  0.33905  1
 Cl  Cl17  1  0.97080  0.14160  0.84658  1
 Cl  Cl18  1  0.61457  0.29232  0.65998  1
 Cl  Cl19  1  0.14141  0.80425  0.68638  1
 Cl  Cl20  1  0.54497  0.88212  0.68638  1
 Cl  Cl21  1  0.45498  0.12578  0.34658  1
 Cl  Cl22  1  0.21915  0.03572  0.49936  1
 Cl  Cl23  1  0.69413  0.04030  -0.00073  1
 Cl  Cl24  1  0.04541  0.36766  0.65998  1
 Re  Re1  1  0.66964  0.66964  0.33927  1
 Re  Re2  1  0.41964  0.91964  0.83927  1
 Se  Se1  1  0.48255  0.04113  0.50645  1
 Se  Se2  1  0.02390  0.46532  0.50645  1
 Se  Se3  1  0.79113  0.73255  0.00645  1
 Se  Se4  1  0.21532  0.27390  0.00645  1
