CIF file written using JARVIS-Tools package.
data_Yb2Pb
_symmetry_space_group_name_H-M  'Pnma'
_cell_length_a       5.27738
_cell_length_b       7.10659
_cell_length_c       9.36144
_cell_angle_alpha    90
_cell_angle_beta     90
_cell_angle_gamma    90

_symmetry_Int_Tables_number  62
_chemical_formula_structural  Yb2Pb
_chemical_formula_sum  Yb8Pb4
_cell_volume  351.0931317490664
_cell_formula_units_Z  4
loop_
  _symmetry_equiv_pos_site_id
 _symmetry_equiv_pos_as_xyz
 1  'x, y, z'
loop_
 _atom_site_type_symbol
 _atom_site_label
 _atom_site_symmetry_multiplicity
 _atom_site_fract_x
 _atom_site_fract_y
 _atom_site_fract_z
 _atom_site_fract_occupancy
 Pb  Pb1  1  0.25000  0.75897  0.59003  1
 Pb  Pb2  1  0.75000  0.24103  0.40997  1
 Pb  Pb3  1  0.25000  0.25897  0.90997  1
 Pb  Pb4  1  0.75000  0.74103  0.09003  1
 Yb  Yb1  1  0.25000  0.49007  0.21982  1
 Yb  Yb2  1  0.75000  0.50993  0.78018  1
 Yb  Yb3  1  0.25000  0.99007  0.28018  1
 Yb  Yb4  1  0.75000  0.00993  0.71982  1
 Yb  Yb5  1  0.75000  0.20555  0.07982  1
 Yb  Yb6  1  0.25000  0.79445  0.92018  1
 Yb  Yb7  1  0.75000  0.70555  0.42018  1
 Yb  Yb8  1  0.25000  0.29445  0.57982  1
