CIF file written using JARVIS-Tools package.
data_Zn2PdO4
_symmetry_space_group_name_H-M  'Fd-3m'
_cell_length_a       6.11378
_cell_length_b       6.11378
_cell_length_c       6.11379
_cell_angle_alpha    60
_cell_angle_beta     60
_cell_angle_gamma    60

_symmetry_Int_Tables_number  227
_chemical_formula_structural  Zn2PdO4
_chemical_formula_sum  Zn4Pd2O8
_cell_volume  161.59040752821562
_cell_formula_units_Z  2
loop_
  _symmetry_equiv_pos_site_id
 _symmetry_equiv_pos_as_xyz
 1  'x, y, z'
loop_
 _atom_site_type_symbol
 _atom_site_label
 _atom_site_symmetry_multiplicity
 _atom_site_fract_x
 _atom_site_fract_y
 _atom_site_fract_z
 _atom_site_fract_occupancy
 O  O1  1  0.74084  0.74084  0.74084  1
 O  O2  1  0.25916  0.25916  0.72251  1
 O  O3  1  0.25916  0.72251  0.25916  1
 O  O4  1  0.72251  0.25916  0.25916  1
 O  O5  1  0.74084  0.27749  0.74084  1
 O  O6  1  0.27749  0.74084  0.74084  1
 O  O7  1  0.25916  0.25916  0.25916  1
 O  O8  1  0.74084  0.74084  0.27749  1
 Pd  Pd1  1  0.87500  0.87500  0.87500  1
 Pd  Pd2  1  0.12500  0.12500  0.12500  1
 Zn  Zn1  1  0.50000  0.50000  0.50000  1
 Zn  Zn2  1  0.50000  0.50000  -0.00000  1
 Zn  Zn3  1  0.50000  0.00000  0.50000  1
 Zn  Zn4  1  -0.00000  0.50000  0.50000  1
