CIF file written using JARVIS-Tools package.
data_RuC4O4
_symmetry_space_group_name_H-M  'P-1'
_cell_length_a       5.77942
_cell_length_b       6.82043
_cell_length_c       8.29526
_cell_angle_alpha    114.106
_cell_angle_beta     110.486
_cell_angle_gamma    89.987

_symmetry_Int_Tables_number  2
_chemical_formula_structural  RuC4O4
_chemical_formula_sum  Ru2C8O8
_cell_volume  275.66909301379917
_cell_formula_units_Z  2
loop_
  _symmetry_equiv_pos_site_id
 _symmetry_equiv_pos_as_xyz
 1  'x, y, z'
loop_
 _atom_site_type_symbol
 _atom_site_label
 _atom_site_symmetry_multiplicity
 _atom_site_fract_x
 _atom_site_fract_y
 _atom_site_fract_z
 _atom_site_fract_occupancy
 C  C1  1  0.37392  0.75412  0.74789  1
 C  C2  1  0.12739  0.00533  0.25320  1
 C  C3  1  0.87381  0.99593  0.74777  1
 C  C4  1  0.06082  0.31743  0.12001  1
 C  C5  1  0.62738  0.24716  0.25309  1
 C  C6  1  0.94042  0.68383  0.88096  1
 C  C7  1  0.44030  0.19853  0.88078  1
 C  C8  1  0.56091  0.80274  0.12020  1
 O  O1  1  0.20232  0.00778  0.40278  1
 O  O2  1  0.40416  0.31577  0.80926  1
 O  O3  1  0.09690  0.50571  0.19140  1
 O  O4  1  0.59702  0.68548  0.19170  1
 O  O5  1  0.29904  0.60782  0.59843  1
 O  O6  1  0.79884  0.99349  0.59819  1
 O  O7  1  0.90434  0.49555  0.80956  1
 O  O8  1  0.70231  0.39346  0.40256  1
 Ru  Ru1  1  0.50062  0.00064  0.00050  1
 Ru  Ru2  1  0.00062  0.00063  0.00048  1
