CIF file written using JARVIS-Tools package.
data_Ca4Al6WO16
_symmetry_space_group_name_H-M  'I-43m'
_cell_length_a       8.15862
_cell_length_b       8.15862
_cell_length_c       8.15862
_cell_angle_alpha    109.471
_cell_angle_beta     109.471
_cell_angle_gamma    109.471

_symmetry_Int_Tables_number  217
_chemical_formula_structural  Ca4Al6WO16
_chemical_formula_sum  Ca4Al6WO6
_cell_volume  418.050631339084
_cell_formula_units_Z  1
loop_
  _symmetry_equiv_pos_site_id
 _symmetry_equiv_pos_as_xyz
 1  'x, y, z'
loop_
 _atom_site_type_symbol
 _atom_site_label
 _atom_site_symmetry_multiplicity
 _atom_site_fract_x
 _atom_site_fract_y
 _atom_site_fract_z
 _atom_site_fract_occupancy
 Al  Al1  1  0.50000  0.75000  0.25000  1
 Al  Al2  1  0.75000  0.50000  0.25000  1
 Al  Al3  1  0.25000  0.75000  0.50000  1
 Al  Al4  1  0.75000  0.25000  0.50000  1
 Al  Al5  1  0.25000  0.50000  0.75000  1
 Al  Al6  1  0.50000  0.25000  0.75000  1
 Ca  Ca1  1  0.49783  0.49783  0.49783  1
 Ca  Ca2  1  0.50217  0.00000  -0.00000  1
 Ca  Ca3  1  -0.00000  -0.00000  0.50217  1
 Ca  Ca4  1  -0.00000  0.50217  -0.00000  1
 O  O1  1  0.69910  0.39321  -0.00000  1
 O  O2  1  0.30588  0.60679  0.60679  1
 O  O3  1  0.60679  0.60679  0.30588  1
 O  O4  1  0.39321  0.69910  -0.00000  1
 O  O5  1  -0.00000  0.69910  0.39321  1
 O  O6  1  0.30090  0.30090  0.69412  1
 O  O7  1  0.39321  -0.00000  0.69910  1
 O  O8  1  0.30090  0.69412  0.30090  1
 O  O9  1  -0.00000  0.39321  0.69910  1
 O  O10  1  0.69412  0.30090  0.30090  1
 O  O11  1  0.77961  0.77961  0.77961  1
 O  O12  1  0.22039  0.00000  -0.00000  1
 O  O13  1  -0.00000  -0.00000  0.22039  1
 O  O14  1  0.60679  0.30588  0.60679  1
 O  O15  1  0.69910  -0.00000  0.39321  1
 O  O16  1  -0.00000  0.22039  -0.00000  1
 W  W1  1  0.00000  0.00000  0.00000  1
