CIF file written using JARVIS-Tools package.
data_ZnFeO2
_symmetry_space_group_name_H-M  'P-1'
_cell_length_a       3.01494
_cell_length_b       7.91903
_cell_length_c       8.19925
_cell_angle_alpha    90.3049
_cell_angle_beta     98.8587
_cell_angle_gamma    98.2727

_symmetry_Int_Tables_number  2
_chemical_formula_structural  ZnFeO2
_chemical_formula_sum  Zn4Fe4O8
_cell_volume  191.3368048303949
_cell_formula_units_Z  4
loop_
  _symmetry_equiv_pos_site_id
 _symmetry_equiv_pos_as_xyz
 1  'x, y, z'
loop_
 _atom_site_type_symbol
 _atom_site_label
 _atom_site_symmetry_multiplicity
 _atom_site_fract_x
 _atom_site_fract_y
 _atom_site_fract_z
 _atom_site_fract_occupancy
 Fe  Fe1  1  0.35776  0.30540  0.59745  1
 Fe  Fe2  1  0.81689  0.40422  0.26660  1
 Fe  Fe3  1  0.18724  0.57570  0.76161  1
 Fe  Fe4  1  0.64640  0.67452  0.43075  1
 O  O1  1  0.22591  0.73619  0.57484  1
 O  O2  1  0.68135  0.39415  0.82055  1
 O  O3  1  0.32280  0.58577  0.20765  1
 O  O4  1  0.77824  0.24374  0.45336  1
 O  O5  1  0.15698  0.08687  0.74330  1
 O  O6  1  0.23151  0.24665  0.15923  1
 O  O7  1  -0.15279  0.89305  0.28490  1
 O  O8  1  0.77260  0.73326  0.86898  1
 Zn  Zn1  1  0.41367  0.05270  0.29572  1
 Zn  Zn2  1  0.59052  0.92722  0.73248  1
 Zn  Zn3  1  0.83912  0.73538  0.10048  1
 Zn  Zn4  1  0.16503  0.24453  0.92772  1
