CIF file written using JARVIS-Tools package.
data_AgBi3S5
_symmetry_space_group_name_H-M  'C2/m'
_cell_length_a       4.05497
_cell_length_b       7.06333
_cell_length_c       16.5695
_cell_angle_alpha    94.3677
_cell_angle_beta     90
_cell_angle_gamma    106.681

_symmetry_Int_Tables_number  12
_chemical_formula_structural  AgBi3S5
_chemical_formula_sum  Ag2Bi6S0
_cell_volume  453.1659797825913
_cell_formula_units_Z  2
loop_
  _symmetry_equiv_pos_site_id
 _symmetry_equiv_pos_as_xyz
 1  'x, y, z'
loop_
 _atom_site_type_symbol
 _atom_site_label
 _atom_site_symmetry_multiplicity
 _atom_site_fract_x
 _atom_site_fract_y
 _atom_site_fract_z
 _atom_site_fract_occupancy
 Ag  Ag1  1  0.00000  0.00000  0.00000  1
 Ag  Ag2  1  0.50000  0.00000  0.50000  1
 Bi  Bi1  1  0.73462  0.46924  0.10906  1
 Bi  Bi2  1  0.47100  0.94201  0.21987  1
 Bi  Bi3  1  0.52900  0.05799  0.78013  1
 Bi  Bi4  1  0.22261  0.44521  0.39201  1
 Bi  Bi5  1  0.77739  0.55479  0.60799  1
 Bi  Bi6  1  0.26538  0.53076  0.89094  1
 S  S1  1  0.84975  0.69950  0.46462  1
 S  S2  1  0.42486  0.84972  0.63566  1
 S  S3  1  0.57514  0.15028  0.36434  1
 S  S4  1  0.16133  0.32267  0.74102  1
 S  S5  1  0.64461  0.28922  0.94262  1
 S  S6  1  0.91390  0.82780  0.85813  1
 S  S7  1  0.15025  0.30050  0.53538  1
 S  S8  1  0.08610  0.17220  0.14187  1
 S  S9  1  0.83867  0.67733  0.25898  1
 S  S10  1  0.35539  0.71078  0.05738  1
