CIF file written using JARVIS-Tools package.
data_CaTeO4
_symmetry_space_group_name_H-M  'Pbcn'
_cell_length_a       5.06467
_cell_length_b       5.23477
_cell_length_c       12.7857
_cell_angle_alpha    90
_cell_angle_beta     90
_cell_angle_gamma    90

_symmetry_Int_Tables_number  60
_chemical_formula_structural  CaTeO4
_chemical_formula_sum  Ca4Te4O6
_cell_volume  338.98025079794854
_cell_formula_units_Z  4
loop_
  _symmetry_equiv_pos_site_id
 _symmetry_equiv_pos_as_xyz
 1  'x, y, z'
loop_
 _atom_site_type_symbol
 _atom_site_label
 _atom_site_symmetry_multiplicity
 _atom_site_fract_x
 _atom_site_fract_y
 _atom_site_fract_z
 _atom_site_fract_occupancy
 Ca  Ca1  1  0.75000  0.00000  0.66908  1
 Ca  Ca2  1  0.25000  0.50000  0.83092  1
 Ca  Ca3  1  0.25000  0.00000  0.33092  1
 Ca  Ca4  1  0.75000  0.50000  0.16908  1
 O  O1  1  0.11488  0.27817  0.67465  1
 O  O2  1  0.61488  0.22183  0.82535  1
 O  O3  1  0.88512  0.77817  0.82535  1
 O  O4  1  0.57169  0.20585  0.04406  1
 O  O5  1  0.88512  0.72183  0.32535  1
 O  O6  1  0.38512  0.77817  0.17465  1
 O  O7  1  0.38512  0.72183  0.67465  1
 O  O8  1  0.61488  0.27817  0.32535  1
 O  O9  1  0.57169  0.29415  0.54406  1
 O  O10  1  0.42831  0.79415  0.95594  1
 O  O11  1  0.11488  0.22183  0.17465  1
 O  O12  1  0.92831  0.70585  0.54406  1
 O  O13  1  0.42831  0.70585  0.45594  1
 O  O14  1  0.92831  0.79415  0.04406  1
 O  O15  1  0.07169  0.20585  0.95594  1
 O  O16  1  0.07169  0.29415  0.45594  1
 Te  Te1  1  0.75000  0.00000  0.92687  1
 Te  Te2  1  0.25000  0.50000  0.57313  1
 Te  Te3  1  0.25000  0.00000  0.07313  1
 Te  Te4  1  0.75000  0.50000  0.42687  1
