CIF file written using JARVIS-Tools package.
data_Pr4As3
_symmetry_space_group_name_H-M  'I-43d'
_cell_length_a       7.88968
_cell_length_b       7.88968
_cell_length_c       7.88968
_cell_angle_alpha    109.471
_cell_angle_beta     109.471
_cell_angle_gamma    109.471

_symmetry_Int_Tables_number  220
_chemical_formula_structural  Pr4As3
_chemical_formula_sum  Pr8As6
_cell_volume  378.05635103624184
_cell_formula_units_Z  2
loop_
  _symmetry_equiv_pos_site_id
 _symmetry_equiv_pos_as_xyz
 1  'x, y, z'
loop_
 _atom_site_type_symbol
 _atom_site_label
 _atom_site_symmetry_multiplicity
 _atom_site_fract_x
 _atom_site_fract_y
 _atom_site_fract_z
 _atom_site_fract_occupancy
 As  As1  1  0.25000  0.62500  0.37500  1
 As  As2  1  0.37500  0.25000  0.62500  1
 As  As3  1  0.12500  0.75000  0.87500  1
 As  As4  1  0.87500  0.12500  0.75000  1
 As  As5  1  0.62500  0.37500  0.25000  1
 As  As6  1  0.75000  0.87500  0.12500  1
 Pr  Pr1  1  0.13333  0.13333  0.13333  1
 Pr  Pr2  1  0.86667  0.50000  0.00000  1
 Pr  Pr3  1  0.00000  0.86667  0.50000  1
 Pr  Pr4  1  0.50000  0.00000  0.86667  1
 Pr  Pr5  1  0.00000  0.36667  0.50000  1
 Pr  Pr6  1  0.50000  0.00000  0.36667  1
 Pr  Pr7  1  0.36667  0.50000  0.00000  1
 Pr  Pr8  1  0.63333  0.63333  0.63333  1
