CIF file written using JARVIS-Tools package.
data_Li2SnP2O7
_symmetry_space_group_name_H-M  'C2/c'
_cell_length_a       9.19168
_cell_length_b       8.24269
_cell_length_c       5.15806
_cell_angle_alpha    108.233
_cell_angle_beta     90
_cell_angle_gamma    66.0263

_symmetry_Int_Tables_number  15
_chemical_formula_structural  Li2SnP2O7
_chemical_formula_sum  Li4Sn2P4O4
_cell_volume  335.4949323106689
_cell_formula_units_Z  2
loop_
  _symmetry_equiv_pos_site_id
 _symmetry_equiv_pos_as_xyz
 1  'x, y, z'
loop_
 _atom_site_type_symbol
 _atom_site_label
 _atom_site_symmetry_multiplicity
 _atom_site_fract_x
 _atom_site_fract_y
 _atom_site_fract_z
 _atom_site_fract_occupancy
 Li  Li1  1  0.55970  0.10454  0.94531  1
 Li  Li2  1  0.05970  0.10454  0.65923  1
 Li  Li3  1  0.94030  0.89546  0.34077  1
 Li  Li4  1  0.44030  0.89546  0.05469  1
 O  O1  1  0.88368  0.15916  0.45235  1
 O  O2  1  0.61632  0.84084  0.79319  1
 O  O3  1  0.94393  0.25943  0.05560  1
 O  O4  1  0.67338  0.25724  0.14709  1
 O  O5  1  0.44393  0.25943  0.70383  1
 O  O6  1  0.38368  0.15916  0.20681  1
 O  O7  1  0.75000  0.50000  0.49553  1
 O  O8  1  0.25000  0.50000  0.50447  1
 O  O9  1  0.82662  0.74276  0.38985  1
 O  O10  1  0.32662  0.74276  0.85291  1
 O  O11  1  0.17338  0.25724  0.61015  1
 O  O12  1  0.05607  0.74057  0.94440  1
 O  O13  1  0.55607  0.74057  0.29617  1
 O  O14  1  0.11632  0.84084  0.54765  1
 P  P1  1  0.18184  0.71993  0.72478  1
 P  P2  1  0.68184  0.71993  0.49515  1
 P  P3  1  0.31816  0.28007  0.50485  1
 P  P4  1  0.81816  0.28007  0.27522  1
 Sn  Sn1  1  0.00000  0.50000  -0.00000  1
 Sn  Sn2  1  0.50000  0.50000  -0.00000  1
