CIF file written using JARVIS-Tools package.
data_BaAu
_symmetry_space_group_name_H-M  'Pnma'
_cell_length_a       5.08626
_cell_length_b       6.38709
_cell_length_c       8.27011
_cell_angle_alpha    90
_cell_angle_beta     90
_cell_angle_gamma    90

_symmetry_Int_Tables_number  62
_chemical_formula_structural  BaAu
_chemical_formula_sum  Ba4Au4
_cell_volume  268.6659269769586
_cell_formula_units_Z  4
loop_
  _symmetry_equiv_pos_site_id
 _symmetry_equiv_pos_as_xyz
 1  'x, y, z'
loop_
 _atom_site_type_symbol
 _atom_site_label
 _atom_site_symmetry_multiplicity
 _atom_site_fract_x
 _atom_site_fract_y
 _atom_site_fract_z
 _atom_site_fract_occupancy
 Au  Au1  1  0.25000  0.35168  0.53992  1
 Au  Au2  1  0.75000  0.85168  0.96008  1
 Au  Au3  1  0.25000  0.14832  0.03992  1
 Au  Au4  1  0.75000  0.64832  0.46008  1
 Ba  Ba1  1  0.25000  0.85545  0.68673  1
 Ba  Ba2  1  0.25000  0.64455  0.18673  1
 Ba  Ba3  1  0.75000  0.14455  0.31327  1
 Ba  Ba4  1  0.75000  0.35545  0.81327  1
