CIF file written using JARVIS-Tools package.
data_Er8Ga3Co
_symmetry_space_group_name_H-M  'P6_3mc'
_cell_length_a       9.8303
_cell_length_b       9.8303
_cell_length_c       6.82775
_cell_angle_alpha    90
_cell_angle_beta     90
_cell_angle_gamma    120

_symmetry_Int_Tables_number  186
_chemical_formula_structural  Er8Ga3Co
_chemical_formula_sum  Er6Ga6Co2
_cell_volume  571.4022284165502
_cell_formula_units_Z  2
loop_
  _symmetry_equiv_pos_site_id
 _symmetry_equiv_pos_as_xyz
 1  'x, y, z'
loop_
 _atom_site_type_symbol
 _atom_site_label
 _atom_site_symmetry_multiplicity
 _atom_site_fract_x
 _atom_site_fract_y
 _atom_site_fract_z
 _atom_site_fract_occupancy
 Co  Co1  1  0.66667  0.33333  0.55756  1
 Co  Co2  1  0.33333  0.66667  0.05756  1
 Er  Er1  1  0.82720  0.65440  0.48924  1
 Er  Er2  1  0.00000  0.00000  0.76742  1
 Er  Er3  1  0.17280  0.82720  0.98924  1
 Er  Er4  1  0.82720  0.17280  0.48924  1
 Er  Er5  1  0.65440  0.82720  0.98924  1
 Er  Er6  1  0.34560  0.17280  0.48924  1
 Er  Er7  1  0.00000  0.00000  0.26742  1
 Er  Er8  1  0.33333  0.66667  0.67314  1
 Er  Er9  1  0.66667  0.33333  0.17314  1
 Er  Er10  1  0.46336  0.53664  0.29330  1
 Er  Er11  1  0.46336  0.92673  0.29330  1
 Er  Er12  1  0.07327  0.53664  0.29330  1
 Er  Er13  1  0.92673  0.46336  0.79330  1
 Er  Er14  1  0.53664  0.07327  0.79330  1
 Er  Er15  1  0.53664  0.46336  0.79330  1
 Er  Er16  1  0.17280  0.34560  0.98924  1
 Ga  Ga1  1  0.16372  0.83628  0.54243  1
 Ga  Ga2  1  0.83628  0.16372  0.04243  1
 Ga  Ga3  1  0.16372  0.32744  0.54243  1
 Ga  Ga4  1  0.67256  0.83628  0.54243  1
 Ga  Ga5  1  0.32744  0.16372  0.04243  1
 Ga  Ga6  1  0.83628  0.67256  0.04243  1
