CIF file written using JARVIS-Tools package.
data_Mo2S3
_symmetry_space_group_name_H-M  'P2_1/m'
_cell_length_a       6.14309
_cell_length_b       3.21337
_cell_length_c       8.69556
_cell_angle_alpha    90
_cell_angle_beta     102.57
_cell_angle_gamma    90

_symmetry_Int_Tables_number  11
_chemical_formula_structural  Mo2S3
_chemical_formula_sum  Mo4S6
_cell_volume  167.53607684894195
_cell_formula_units_Z  2
loop_
  _symmetry_equiv_pos_site_id
 _symmetry_equiv_pos_as_xyz
 1  'x, y, z'
loop_
 _atom_site_type_symbol
 _atom_site_label
 _atom_site_symmetry_multiplicity
 _atom_site_fract_x
 _atom_site_fract_y
 _atom_site_fract_z
 _atom_site_fract_occupancy
 Mo  Mo1  1  0.89148  0.25000  0.37469  1
 Mo  Mo2  1  0.10852  0.75000  0.62531  1
 Mo  Mo3  1  0.68731  0.25000  0.98948  1
 Mo  Mo4  1  0.31269  0.75000  0.01052  1
 S  S1  1  0.27455  0.25000  0.48468  1
 S  S2  1  0.72545  0.75000  0.51532  1
 S  S3  1  0.02760  0.25000  0.84220  1
 S  S4  1  0.97240  0.75000  0.15780  1
 S  S5  1  0.50618  0.75000  0.80264  1
 S  S6  1  0.49382  0.25000  0.19736  1
