CIF file written using JARVIS-Tools package.
data_Er4InRh
_symmetry_space_group_name_H-M  'F-43m'
_cell_length_a       9.50061
_cell_length_b       9.50062
_cell_length_c       9.50061
_cell_angle_alpha    60
_cell_angle_beta     60
_cell_angle_gamma    60

_symmetry_Int_Tables_number  216
_chemical_formula_structural  Er4InRh
_chemical_formula_sum  Er6In4Rh4
_cell_volume  606.3727763172642
_cell_formula_units_Z  4
loop_
  _symmetry_equiv_pos_site_id
 _symmetry_equiv_pos_as_xyz
 1  'x, y, z'
loop_
 _atom_site_type_symbol
 _atom_site_label
 _atom_site_symmetry_multiplicity
 _atom_site_fract_x
 _atom_site_fract_y
 _atom_site_fract_z
 _atom_site_fract_occupancy
 Er  Er1  1  0.18947  0.81053  0.18947  1
 Er  Er2  1  0.18947  0.18947  0.81053  1
 Er  Er3  1  0.06229  0.06229  0.43771  1
 Er  Er4  1  0.06229  0.43771  0.43771  1
 Er  Er5  1  0.43771  0.06229  0.06229  1
 Er  Er6  1  0.81053  0.81053  0.18947  1
 Er  Er7  1  0.06229  0.43771  0.06229  1
 Er  Er8  1  0.43771  0.43771  0.06229  1
 Er  Er9  1  0.04986  0.65005  0.65005  1
 Er  Er10  1  0.65005  0.04986  0.65005  1
 Er  Er11  1  0.65005  0.65005  0.65005  1
 Er  Er12  1  0.65005  0.65005  0.04986  1
 Er  Er13  1  0.18947  0.81053  0.81053  1
 Er  Er14  1  0.43771  0.06229  0.43771  1
 Er  Er15  1  0.81053  0.18947  0.18947  1
 Er  Er16  1  0.81053  0.18947  0.81053  1
 In  In1  1  0.75111  0.41630  0.41630  1
 In  In2  1  0.41630  0.75111  0.41630  1
 In  In3  1  0.41630  0.41630  0.75111  1
 In  In4  1  0.41630  0.41630  0.41630  1
 Rh  Rh1  1  0.85759  0.42724  0.85759  1
 Rh  Rh2  1  0.85759  0.85759  0.42724  1
 Rh  Rh3  1  0.42724  0.85759  0.85759  1
 Rh  Rh4  1  0.85759  0.85759  0.85759  1
