CIF file written using JARVIS-Tools package.
data_Rb3TiF7
_symmetry_space_group_name_H-M  'P4/mbm'
_cell_length_a       8.08044
_cell_length_b       8.08044
_cell_length_c       5.98247
_cell_angle_alpha    90
_cell_angle_beta     90
_cell_angle_gamma    90

_symmetry_Int_Tables_number  127
_chemical_formula_structural  Rb3TiF7
_chemical_formula_sum  Rb6Ti2F4
_cell_volume  390.6166418993017
_cell_formula_units_Z  2
loop_
  _symmetry_equiv_pos_site_id
 _symmetry_equiv_pos_as_xyz
 1  'x, y, z'
loop_
 _atom_site_type_symbol
 _atom_site_label
 _atom_site_symmetry_multiplicity
 _atom_site_fract_x
 _atom_site_fract_y
 _atom_site_fract_z
 _atom_site_fract_occupancy
 F  F1  1  0.50000  0.50000  0.50000  1
 F  F2  1  0.38539  0.88539  0.77243  1
 F  F3  1  0.61461  0.11461  0.77243  1
 F  F4  1  0.66521  0.83479  0.00000  1
 F  F5  1  0.88539  0.61461  0.77243  1
 F  F6  1  0.38539  0.88539  0.22757  1
 F  F7  1  0.11461  0.38539  0.77243  1
 F  F8  1  0.11461  0.38539  0.22757  1
 F  F9  1  0.61461  0.11461  0.22757  1
 F  F10  1  0.00000  0.00000  0.50000  1
 F  F11  1  0.16521  0.66521  0.00000  1
 F  F12  1  0.83479  0.33479  0.00000  1
 F  F13  1  0.33479  0.16521  0.00000  1
 F  F14  1  0.88539  0.61461  0.22757  1
 Rb  Rb1  1  0.00000  0.00000  0.00000  1
 Rb  Rb2  1  0.50000  0.50000  0.00000  1
 Rb  Rb3  1  0.81101  0.31101  0.50000  1
 Rb  Rb4  1  0.31101  0.18899  0.50000  1
 Rb  Rb5  1  0.68899  0.81101  0.50000  1
 Rb  Rb6  1  0.18899  0.68899  0.50000  1
 Ti  Ti1  1  0.50000  0.00000  0.00000  1
 Ti  Ti2  1  0.00000  0.50000  0.00000  1
