CIF file written using JARVIS-Tools package.
data_ErSiPd2
_symmetry_space_group_name_H-M  'Pnma'
_cell_length_a       5.51462
_cell_length_b       6.97666
_cell_length_c       7.27733
_cell_angle_alpha    90
_cell_angle_beta     90
_cell_angle_gamma    90

_symmetry_Int_Tables_number  62
_chemical_formula_structural  ErSiPd2
_chemical_formula_sum  Er4Si4Pd8
_cell_volume  279.9851567334226
_cell_formula_units_Z  4
loop_
  _symmetry_equiv_pos_site_id
 _symmetry_equiv_pos_as_xyz
 1  'x, y, z'
loop_
 _atom_site_type_symbol
 _atom_site_label
 _atom_site_symmetry_multiplicity
 _atom_site_fract_x
 _atom_site_fract_y
 _atom_site_fract_z
 _atom_site_fract_occupancy
 Er  Er1  1  0.14204  0.75000  0.52775  1
 Er  Er2  1  0.64204  0.25000  0.97225  1
 Er  Er3  1  0.85796  0.25000  0.47225  1
 Er  Er4  1  0.35796  0.75000  0.02775  1
 Pd  Pd1  1  0.90820  0.94927  0.18068  1
 Pd  Pd2  1  0.40820  0.05073  0.31932  1
 Pd  Pd3  1  0.09180  0.44927  0.81932  1
 Pd  Pd4  1  0.59180  0.55073  0.68068  1
 Pd  Pd5  1  0.09180  0.05073  0.81932  1
 Pd  Pd6  1  0.59180  0.94927  0.68068  1
 Pd  Pd7  1  0.90820  0.55073  0.18068  1
 Pd  Pd8  1  0.40820  0.44927  0.31932  1
 Si  Si1  1  0.85758  0.75000  0.87951  1
 Si  Si2  1  0.35758  0.25000  0.62049  1
 Si  Si3  1  0.14242  0.25000  0.12049  1
 Si  Si4  1  0.64242  0.75000  0.37951  1
