CIF file written using JARVIS-Tools package.
data_LiTiO2
_symmetry_space_group_name_H-M  'I4_1/amd'
_cell_length_a       5.75082
_cell_length_b       7.69516
_cell_length_c       5.11318
_cell_angle_alpha    29.0046
_cell_angle_beta     55.7814
_cell_angle_gamma    41.6404

_symmetry_Int_Tables_number  141
_chemical_formula_structural  LiTiO2
_chemical_formula_sum  Li2Ti2O4
_cell_volume  69.9167842097361
_cell_formula_units_Z  2
loop_
  _symmetry_equiv_pos_site_id
 _symmetry_equiv_pos_as_xyz
 1  'x, y, z'
loop_
 _atom_site_type_symbol
 _atom_site_label
 _atom_site_symmetry_multiplicity
 _atom_site_fract_x
 _atom_site_fract_y
 _atom_site_fract_z
 _atom_site_fract_occupancy
 Li  Li1  1  0.75000  -0.00000  0.50000  1
 Li  Li2  1  0.50000  0.50000  0.50000  1
 O  O1  1  0.00044  1.00000  0.99913  1
 O  O2  1  0.24956  0.50000  0.00087  1
 O  O3  1  0.75044  0.50000  0.99913  1
 O  O4  1  0.49956  0.00000  0.00087  1
 Ti  Ti1  1  0.25000  -0.00000  0.50000  1
 Ti  Ti2  1  -0.00000  0.50000  0.50000  1
