CIF file written using JARVIS-Tools package.
data_MgI2O6
_symmetry_space_group_name_H-M  'P2_1'
_cell_length_a       5.51685
_cell_length_b       5.03484
_cell_length_c       9.49226
_cell_angle_alpha    90
_cell_angle_beta     90.3226
_cell_angle_gamma    90

_symmetry_Int_Tables_number  4
_chemical_formula_structural  MgI2O6
_chemical_formula_sum  Mg2I4O2
_cell_volume  263.6568421060802
_cell_formula_units_Z  2
loop_
  _symmetry_equiv_pos_site_id
 _symmetry_equiv_pos_as_xyz
 1  'x, y, z'
loop_
 _atom_site_type_symbol
 _atom_site_label
 _atom_site_symmetry_multiplicity
 _atom_site_fract_x
 _atom_site_fract_y
 _atom_site_fract_z
 _atom_site_fract_occupancy
 I  I1  1  0.73379  0.99951  0.09990  1
 I  I2  1  0.26621  0.49951  0.90010  1
 I  I3  1  0.26119  0.01263  0.56775  1
 I  I4  1  0.73881  0.51263  0.43225  1
 Mg  Mg1  1  0.76544  0.07871  0.75466  1
 Mg  Mg2  1  0.23456  0.57871  0.24534  1
 O  O1  1  0.91171  0.79728  0.22448  1
 O  O2  1  0.84966  0.86185  0.93399  1
 O  O3  1  0.65917  0.29566  0.58036  1
 O  O4  1  0.44881  0.80910  0.10591  1
 O  O5  1  0.55119  0.30910  0.89409  1
 O  O6  1  0.08829  0.29728  0.77552  1
 O  O7  1  0.15034  0.36185  0.06601  1
 O  O8  1  0.46505  0.85119  0.69676  1
 O  O9  1  0.01794  0.34106  0.37717  1
 O  O10  1  0.98206  0.84106  0.62283  1
 O  O11  1  0.34083  0.79566  0.41964  1
 O  O12  1  0.53495  0.35119  0.30324  1
