CIF file written using JARVIS-Tools package.
data_SnO2
_symmetry_space_group_name_H-M  'Pbca'
_cell_length_a       5.14506
_cell_length_b       5.22754
_cell_length_c       10.1287
_cell_angle_alpha    90
_cell_angle_beta     90
_cell_angle_gamma    90

_symmetry_Int_Tables_number  61
_chemical_formula_structural  SnO2
_chemical_formula_sum  Sn8O6
_cell_volume  272.42104231228205
_cell_formula_units_Z  8
loop_
  _symmetry_equiv_pos_site_id
 _symmetry_equiv_pos_as_xyz
 1  'x, y, z'
loop_
 _atom_site_type_symbol
 _atom_site_label
 _atom_site_symmetry_multiplicity
 _atom_site_fract_x
 _atom_site_fract_y
 _atom_site_fract_z
 _atom_site_fract_occupancy
 O  O1  1  0.50543  0.24052  0.47726  1
 O  O2  1  0.86168  0.62899  0.79147  1
 O  O3  1  0.99457  0.24052  0.97726  1
 O  O4  1  0.00543  0.75948  0.02274  1
 O  O5  1  0.99457  0.74052  0.52274  1
 O  O6  1  0.63832  0.62899  0.29147  1
 O  O7  1  0.13832  0.37101  0.20853  1
 O  O8  1  0.63832  0.12899  0.20853  1
 O  O9  1  0.86168  0.12899  0.70853  1
 O  O10  1  0.00543  0.25948  0.47726  1
 O  O11  1  0.13832  0.87101  0.29147  1
 O  O12  1  0.49457  0.75948  0.52274  1
 O  O13  1  0.36168  0.37101  0.70853  1
 O  O14  1  0.50543  0.74052  0.02274  1
 O  O15  1  0.49457  0.25948  0.97726  1
 O  O16  1  0.36168  0.87101  0.79147  1
 Sn  Sn1  1  0.22892  0.03073  0.61796  1
 Sn  Sn2  1  0.27108  0.53073  0.38204  1
 Sn  Sn3  1  0.72892  0.96927  0.88204  1
 Sn  Sn4  1  0.77108  0.96927  0.38204  1
 Sn  Sn5  1  0.22892  0.53073  0.88204  1
 Sn  Sn6  1  0.27108  0.03073  0.11796  1
 Sn  Sn7  1  0.72892  0.46927  0.61796  1
 Sn  Sn8  1  0.77108  0.46927  0.11796  1
