CIF file written using JARVIS-Tools package.
data_Li2Mn3SbO8
_symmetry_space_group_name_H-M  'P31c'
_cell_length_a       5.95956
_cell_length_b       5.95956
_cell_length_c       9.72791
_cell_angle_alpha    90
_cell_angle_beta     90
_cell_angle_gamma    120

_symmetry_Int_Tables_number  159
_chemical_formula_structural  Li2Mn3SbO8
_chemical_formula_sum  Li4Mn6Sb2O6
_cell_volume  299.21170767132463
_cell_formula_units_Z  2
loop_
  _symmetry_equiv_pos_site_id
 _symmetry_equiv_pos_as_xyz
 1  'x, y, z'
loop_
 _atom_site_type_symbol
 _atom_site_label
 _atom_site_symmetry_multiplicity
 _atom_site_fract_x
 _atom_site_fract_y
 _atom_site_fract_z
 _atom_site_fract_occupancy
 Li  Li1  1  0.33333  0.66667  0.90583  1
 Li  Li2  1  0.00000  0.00000  0.98638  1
 Li  Li3  1  0.00000  0.00000  0.48638  1
 Li  Li4  1  0.66667  0.33333  0.40583  1
 Mn  Mn1  1  0.66191  0.83871  0.21308  1
 Mn  Mn2  1  0.17679  0.33809  0.21308  1
 Mn  Mn3  1  0.16129  0.82321  0.21308  1
 Mn  Mn4  1  0.33809  0.17679  0.71308  1
 Mn  Mn5  1  0.83871  0.66191  0.71308  1
 Mn  Mn6  1  0.82321  0.16129  0.71308  1
 O  O1  1  0.03387  0.47618  0.34872  1
 O  O2  1  0.13944  0.80737  0.59198  1
 O  O3  1  0.96613  0.44231  0.84872  1
 O  O4  1  0.33333  0.66667  0.11801  1
 O  O5  1  0.00000  0.00000  0.29679  1
 O  O6  1  0.00000  0.00000  0.79679  1
 O  O7  1  0.19263  0.33207  0.59198  1
 O  O8  1  0.52382  0.55769  0.34872  1
 O  O9  1  0.86056  0.66793  0.09198  1
 O  O10  1  0.55769  0.52382  0.84872  1
 O  O11  1  0.47618  0.03387  0.84872  1
 O  O12  1  0.66667  0.33333  0.61801  1
 O  O13  1  0.44231  0.96613  0.34872  1
 O  O14  1  0.33207  0.19263  0.09198  1
 O  O15  1  0.66793  0.86056  0.59198  1
 O  O16  1  0.80737  0.13944  0.09198  1
 Sb  Sb1  1  0.66667  0.33333  0.98562  1
 Sb  Sb2  1  0.33333  0.66667  0.48562  1
