CIF file written using JARVIS-Tools package.
data_Ni2Mo3N
_symmetry_space_group_name_H-M  'P4_132'
_cell_length_a       6.65619
_cell_length_b       6.65619
_cell_length_c       6.65619
_cell_angle_alpha    90
_cell_angle_beta     90
_cell_angle_gamma    90

_symmetry_Int_Tables_number  213
_chemical_formula_structural  Ni2Mo3N
_chemical_formula_sum  Ni8Mo2N4
_cell_volume  294.90171094507843
_cell_formula_units_Z  4
loop_
  _symmetry_equiv_pos_site_id
 _symmetry_equiv_pos_as_xyz
 1  'x, y, z'
loop_
 _atom_site_type_symbol
 _atom_site_label
 _atom_site_symmetry_multiplicity
 _atom_site_fract_x
 _atom_site_fract_y
 _atom_site_fract_z
 _atom_site_fract_occupancy
 Mo  Mo1  1  0.87500  0.70097  0.04903  1
 Mo  Mo2  1  0.54903  0.62500  0.29903  1
 Mo  Mo3  1  0.20097  0.45097  0.12500  1
 Mo  Mo4  1  0.04903  0.87500  0.70097  1
 Mo  Mo5  1  0.45097  0.12500  0.20097  1
 Mo  Mo6  1  0.95097  0.37500  0.79903  1
 Mo  Mo7  1  0.79903  0.95097  0.37500  1
 Mo  Mo8  1  0.12500  0.20097  0.45097  1
 Mo  Mo9  1  0.37500  0.79903  0.95097  1
 Mo  Mo10  1  0.29903  0.54903  0.62500  1
 Mo  Mo11  1  0.62500  0.29903  0.54903  1
 Mo  Mo12  1  0.70097  0.04903  0.87500  1
 N  N1  1  0.87500  0.12500  0.62500  1
 N  N2  1  0.12500  0.62500  0.87500  1
 N  N3  1  0.37500  0.37500  0.37500  1
 N  N4  1  0.62500  0.87500  0.12500  1
 Ni  Ni1  1  0.06629  0.06629  0.06629  1
 Ni  Ni2  1  0.56629  0.43371  0.93371  1
 Ni  Ni3  1  0.31629  0.18371  0.81629  1
 Ni  Ni4  1  0.81629  0.31629  0.18371  1
 Ni  Ni5  1  0.68371  0.68371  0.68371  1
 Ni  Ni6  1  0.43371  0.93371  0.56629  1
 Ni  Ni7  1  0.18371  0.81629  0.31629  1
 Ni  Ni8  1  0.93371  0.56629  0.43371  1
