CIF file written using JARVIS-Tools package.
data_Mo3Pd2N
_symmetry_space_group_name_H-M  'P4_132'
_cell_length_a       6.86414
_cell_length_b       6.86414
_cell_length_c       6.86414
_cell_angle_alpha    90
_cell_angle_beta     90
_cell_angle_gamma    90

_symmetry_Int_Tables_number  213
_chemical_formula_structural  Mo3Pd2N
_chemical_formula_sum  Mo2Pd8N4
_cell_volume  323.41430869157045
_cell_formula_units_Z  4
loop_
  _symmetry_equiv_pos_site_id
 _symmetry_equiv_pos_as_xyz
 1  'x, y, z'
loop_
 _atom_site_type_symbol
 _atom_site_label
 _atom_site_symmetry_multiplicity
 _atom_site_fract_x
 _atom_site_fract_y
 _atom_site_fract_z
 _atom_site_fract_occupancy
 Mo  Mo1  1  0.79736  0.04736  0.12500  1
 Mo  Mo2  1  0.04736  0.12500  0.79736  1
 Mo  Mo3  1  0.54736  0.37500  0.20264  1
 Mo  Mo4  1  0.87500  0.29736  0.45264  1
 Mo  Mo5  1  0.12500  0.79736  0.04736  1
 Mo  Mo6  1  0.70264  0.95264  0.62500  1
 Mo  Mo7  1  0.20264  0.54736  0.37500  1
 Mo  Mo8  1  0.45264  0.87500  0.29736  1
 Mo  Mo9  1  0.62500  0.70264  0.95264  1
 Mo  Mo10  1  0.95264  0.62500  0.70264  1
 Mo  Mo11  1  0.37500  0.20264  0.54736  1
 Mo  Mo12  1  0.29736  0.45264  0.87500  1
 N  N1  1  0.87500  0.87500  0.87500  1
 N  N2  1  0.62500  0.12500  0.37500  1
 N  N3  1  0.37500  0.62500  0.12500  1
 N  N4  1  0.12500  0.37500  0.62500  1
 Pd  Pd1  1  0.81028  0.68972  0.31028  1
 Pd  Pd2  1  0.06028  0.93972  0.43972  1
 Pd  Pd3  1  0.43972  0.06028  0.93972  1
 Pd  Pd4  1  0.18972  0.18972  0.18972  1
 Pd  Pd5  1  0.93972  0.43972  0.06028  1
 Pd  Pd6  1  0.56028  0.56028  0.56028  1
 Pd  Pd7  1  0.68972  0.31028  0.81028  1
 Pd  Pd8  1  0.31028  0.81028  0.68972  1
