CIF file written using JARVIS-Tools package.
data_Ho6GaCo2
_symmetry_space_group_name_H-M  'Immm'
_cell_length_a       8.15906
_cell_length_b       8.15906
_cell_length_c       8.15906
_cell_angle_alpha    106.766
_cell_angle_beta     109.553
_cell_angle_gamma    112.14

_symmetry_Int_Tables_number  71
_chemical_formula_structural  Ho6GaCo2
_chemical_formula_sum  Ho2Ga2Co4
_cell_volume  417.19859377106127
_cell_formula_units_Z  2
loop_
  _symmetry_equiv_pos_site_id
 _symmetry_equiv_pos_as_xyz
 1  'x, y, z'
loop_
 _atom_site_type_symbol
 _atom_site_label
 _atom_site_symmetry_multiplicity
 _atom_site_fract_x
 _atom_site_fract_y
 _atom_site_fract_z
 _atom_site_fract_occupancy
 Co  Co1  1  -0.00000  0.11561  0.11561  1
 Co  Co2  1  0.16278  0.50000  0.66278  1
 Co  Co3  1  0.83722  0.50000  0.33722  1
 Co  Co4  1  0.00000  0.88439  0.88439  1
 Ga  Ga1  1  0.50000  0.50000  -0.00000  1
 Ga  Ga2  1  0.50000  0.00000  0.50000  1
 Ho  Ho1  1  0.96123  0.78007  0.18116  1
 Ho  Ho2  1  0.69720  0.26085  0.95805  1
 Ho  Ho3  1  0.30280  0.73915  0.04195  1
 Ho  Ho4  1  0.81132  0.48521  0.67390  1
 Ho  Ho5  1  0.18868  0.51479  0.32610  1
 Ho  Ho6  1  0.18868  0.86258  0.67390  1
 Ho  Ho7  1  0.30280  0.26085  0.56365  1
 Ho  Ho8  1  0.69720  0.73915  0.43635  1
 Ho  Ho9  1  0.40109  0.21993  0.18116  1
 Ho  Ho10  1  0.03877  0.21993  0.81884  1
 Ho  Ho11  1  0.81132  0.13742  0.32610  1
 Ho  Ho12  1  0.59891  0.78007  0.81884  1
