CIF file written using JARVIS-Tools package.
data_CaN2O6
_symmetry_space_group_name_H-M  'Pa-3'
_cell_length_a       7.54066
_cell_length_b       7.54066
_cell_length_c       7.54066
_cell_angle_alpha    90
_cell_angle_beta     90
_cell_angle_gamma    90

_symmetry_Int_Tables_number  205
_chemical_formula_structural  CaN2O6
_chemical_formula_sum  Ca4N8O24
_cell_volume  428.7729529191807
_cell_formula_units_Z  4
loop_
  _symmetry_equiv_pos_site_id
 _symmetry_equiv_pos_as_xyz
 1  'x, y, z'
loop_
 _atom_site_type_symbol
 _atom_site_label
 _atom_site_symmetry_multiplicity
 _atom_site_fract_x
 _atom_site_fract_y
 _atom_site_fract_z
 _atom_site_fract_occupancy
 Ca  Ca1  1  0.00000  0.50000  0.50000  1
 Ca  Ca2  1  0.50000  0.50000  0.00000  1
 Ca  Ca3  1  0.50000  0.00000  0.50000  1
 Ca  Ca4  1  0.00000  0.00000  0.00000  1
 N  N1  1  0.34005  0.34005  0.34005  1
 N  N2  1  0.34005  0.15995  0.84005  1
 N  N3  1  0.15995  0.84005  0.34005  1
 N  N4  1  0.84005  0.34005  0.15995  1
 N  N5  1  0.65995  0.65995  0.65995  1
 N  N6  1  0.15995  0.65995  0.84005  1
 N  N7  1  0.84005  0.15995  0.65995  1
 N  N8  1  0.65995  0.84005  0.15995  1
 O  O1  1  0.71771  0.97611  0.23931  1
 O  O2  1  0.76069  0.28229  0.02389  1
 O  O3  1  0.21771  0.97611  0.26069  1
 O  O4  1  0.23931  0.78229  0.47611  1
 O  O5  1  0.26069  0.21771  0.97611  1
 O  O6  1  0.26069  0.28229  0.47611  1
 O  O7  1  0.97611  0.26069  0.21771  1
 O  O8  1  0.28229  0.47611  0.26069  1
 O  O9  1  0.21771  0.52389  0.76069  1
 O  O10  1  0.97611  0.23931  0.71771  1
 O  O11  1  0.47611  0.26069  0.28229  1
 O  O12  1  0.52389  0.73931  0.71771  1
 O  O13  1  0.76069  0.21771  0.52389  1
 O  O14  1  0.73931  0.78229  0.02389  1
 O  O15  1  0.23931  0.71771  0.97611  1
 O  O16  1  0.73931  0.71771  0.52389  1
 O  O17  1  0.02389  0.73931  0.78229  1
 O  O18  1  0.71771  0.52389  0.73931  1
 O  O19  1  0.78229  0.47611  0.23931  1
 O  O20  1  0.02389  0.76069  0.28229  1
 O  O21  1  0.28229  0.02389  0.76069  1
 O  O22  1  0.78229  0.02389  0.73931  1
 O  O23  1  0.52389  0.76069  0.21771  1
 O  O24  1  0.47611  0.23931  0.78229  1
