CIF file written using JARVIS-Tools package.
data_HfCoAs
_symmetry_space_group_name_H-M  'Pnma'
_cell_length_a       3.82608
_cell_length_b       6.47443
_cell_length_c       7.24735
_cell_angle_alpha    90
_cell_angle_beta     90
_cell_angle_gamma    90

_symmetry_Int_Tables_number  62
_chemical_formula_structural  HfCoAs
_chemical_formula_sum  Hf4Co4As4
_cell_volume  179.52882400491475
_cell_formula_units_Z  4
loop_
  _symmetry_equiv_pos_site_id
 _symmetry_equiv_pos_as_xyz
 1  'x, y, z'
loop_
 _atom_site_type_symbol
 _atom_site_label
 _atom_site_symmetry_multiplicity
 _atom_site_fract_x
 _atom_site_fract_y
 _atom_site_fract_z
 _atom_site_fract_occupancy
 As  As1  1  0.75000  0.73404  0.38454  1
 As  As2  1  0.25000  0.26596  0.61546  1
 As  As3  1  0.75000  0.23404  0.11546  1
 As  As4  1  0.25000  0.76596  0.88454  1
 Co  Co1  1  0.25000  0.63859  0.56418  1
 Co  Co2  1  0.75000  0.36141  0.43582  1
 Co  Co3  1  0.25000  0.13859  0.93582  1
 Co  Co4  1  0.75000  0.86141  0.06418  1
 Hf  Hf1  1  0.25000  0.52044  0.18835  1
 Hf  Hf2  1  0.75000  0.47956  0.81165  1
 Hf  Hf3  1  0.25000  0.02044  0.31165  1
 Hf  Hf4  1  0.75000  0.97956  0.68835  1
