CIF file written using JARVIS-Tools package.
data_Dy5Sn3
_symmetry_space_group_name_H-M  'P6_3/mcm'
_cell_length_a       8.91972
_cell_length_b       8.91972
_cell_length_c       6.52499
_cell_angle_alpha    90
_cell_angle_beta     90
_cell_angle_gamma    120

_symmetry_Int_Tables_number  193
_chemical_formula_structural  Dy5Sn3
_chemical_formula_sum  Dy0Sn6
_cell_volume  449.58641879321874
_cell_formula_units_Z  2
loop_
  _symmetry_equiv_pos_site_id
 _symmetry_equiv_pos_as_xyz
 1  'x, y, z'
loop_
 _atom_site_type_symbol
 _atom_site_label
 _atom_site_symmetry_multiplicity
 _atom_site_fract_x
 _atom_site_fract_y
 _atom_site_fract_z
 _atom_site_fract_occupancy
 Dy  Dy1  1  0.23809  0.23809  0.25000  1
 Dy  Dy2  1  0.76191  0.76191  0.75000  1
 Dy  Dy3  1  -0.00000  0.23809  0.75000  1
 Dy  Dy4  1  0.76191  0.00000  0.25000  1
 Dy  Dy5  1  0.00000  0.76191  0.25000  1
 Dy  Dy6  1  0.23809  -0.00000  0.75000  1
 Dy  Dy7  1  0.66667  0.33333  0.50000  1
 Dy  Dy8  1  0.33333  0.66667  0.00000  1
 Dy  Dy9  1  0.33333  0.66667  0.50000  1
 Dy  Dy10  1  0.66667  0.33333  0.00000  1
 Sn  Sn1  1  0.39458  0.00000  0.25000  1
 Sn  Sn2  1  -0.00000  0.60542  0.75000  1
 Sn  Sn3  1  0.39458  0.39458  0.75000  1
 Sn  Sn4  1  0.60542  0.60542  0.25000  1
 Sn  Sn5  1  0.00000  0.39458  0.25000  1
 Sn  Sn6  1  0.60542  -0.00000  0.75000  1
