CIF file written using JARVIS-Tools package.
data_Cu3BiS3
_symmetry_space_group_name_H-M  'P2_12_12_1'
_cell_length_a       6.75479
_cell_length_b       7.53296
_cell_length_c       10.65
_cell_angle_alpha    90
_cell_angle_beta     90
_cell_angle_gamma    90

_symmetry_Int_Tables_number  19
_chemical_formula_structural  Cu3BiS3
_chemical_formula_sum  Cu2Bi4S2
_cell_volume  541.9111233102182
_cell_formula_units_Z  4
loop_
  _symmetry_equiv_pos_site_id
 _symmetry_equiv_pos_as_xyz
 1  'x, y, z'
loop_
 _atom_site_type_symbol
 _atom_site_label
 _atom_site_symmetry_multiplicity
 _atom_site_fract_x
 _atom_site_fract_y
 _atom_site_fract_z
 _atom_site_fract_occupancy
 Bi  Bi1  1  0.37295  0.67212  0.76062  1
 Bi  Bi2  1  0.87295  0.82788  0.23938  1
 Bi  Bi3  1  0.62705  0.17212  0.73938  1
 Bi  Bi4  1  0.12705  0.32788  0.26062  1
 Cu  Cu1  1  0.47008  0.04700  0.04674  1
 Cu  Cu2  1  0.97008  0.45300  0.95326  1
 Cu  Cu3  1  0.56356  0.18852  0.40069  1
 Cu  Cu4  1  0.52992  0.54700  0.45326  1
 Cu  Cu5  1  0.62722  0.36486  0.08263  1
 Cu  Cu6  1  0.37278  0.86486  0.41737  1
 Cu  Cu7  1  0.12722  0.13514  0.91737  1
 Cu  Cu8  1  0.43644  0.68852  0.09931  1
 Cu  Cu9  1  0.02992  0.95300  0.54674  1
 Cu  Cu10  1  0.06356  0.31148  0.59931  1
 Cu  Cu11  1  0.87278  0.63514  0.58263  1
 Cu  Cu12  1  0.93644  0.81148  0.90069  1
 S  S1  1  0.89731  0.17930  0.43271  1
 S  S2  1  0.37917  0.05594  0.25053  1
 S  S3  1  0.58893  0.80565  0.57515  1
 S  S4  1  0.91107  0.19435  0.07515  1
 S  S5  1  0.08893  0.69435  0.42485  1
 S  S6  1  0.60269  0.82070  0.93271  1
 S  S7  1  0.12083  0.94406  0.75053  1
 S  S8  1  0.10269  0.67930  0.06729  1
 S  S9  1  0.39731  0.32070  0.56729  1
 S  S10  1  0.87917  0.44406  0.74947  1
 S  S11  1  0.41107  0.30565  0.92485  1
 S  S12  1  0.62083  0.55594  0.24947  1
