CIF file written using JARVIS-Tools package.
data_LiMnAsO4
_symmetry_space_group_name_H-M  'Pnma'
_cell_length_a       4.95599
_cell_length_b       6.16679
_cell_length_c       10.7477
_cell_angle_alpha    90
_cell_angle_beta     90
_cell_angle_gamma    90

_symmetry_Int_Tables_number  62
_chemical_formula_structural  LiMnAsO4
_chemical_formula_sum  Li4Mn4As4O6
_cell_volume  328.4772408012484
_cell_formula_units_Z  4
loop_
  _symmetry_equiv_pos_site_id
 _symmetry_equiv_pos_as_xyz
 1  'x, y, z'
loop_
 _atom_site_type_symbol
 _atom_site_label
 _atom_site_symmetry_multiplicity
 _atom_site_fract_x
 _atom_site_fract_y
 _atom_site_fract_z
 _atom_site_fract_occupancy
 As  As1  1  0.92944  0.75000  0.58965  1
 As  As2  1  0.07056  0.25000  0.41035  1
 As  As3  1  0.42944  0.25000  0.91035  1
 As  As4  1  0.57056  0.75000  0.08965  1
 Li  Li1  1  0.00000  0.00000  0.00000  1
 Li  Li2  1  0.50000  0.50000  0.50000  1
 Li  Li3  1  0.00000  0.50000  0.00000  1
 Li  Li4  1  0.50000  0.00000  0.50000  1
 Mn  Mn1  1  0.98520  0.25000  0.72368  1
 Mn  Mn2  1  0.48520  0.75000  0.77632  1
 Mn  Mn3  1  0.51480  0.25000  0.22368  1
 Mn  Mn4  1  0.01480  0.75000  0.27632  1
 O  O1  1  0.77582  0.53237  0.66488  1
 O  O2  1  0.77432  0.25000  0.90742  1
 O  O3  1  0.21723  0.25000  0.55628  1
 O  O4  1  0.72418  0.53237  0.16488  1
 O  O5  1  0.77582  0.96763  0.66488  1
 O  O6  1  0.27582  0.03237  0.83512  1
 O  O7  1  0.22418  0.46763  0.33512  1
 O  O8  1  0.71723  0.75000  0.94372  1
 O  O9  1  0.22568  0.75000  0.09258  1
 O  O10  1  0.72568  0.25000  0.40742  1
 O  O11  1  0.72418  0.96763  0.16488  1
 O  O12  1  0.27432  0.75000  0.59258  1
 O  O13  1  0.27582  0.46763  0.83512  1
 O  O14  1  0.28277  0.25000  0.05628  1
 O  O15  1  0.22418  0.03237  0.33512  1
 O  O16  1  0.78277  0.75000  0.44372  1
