CIF file written using JARVIS-Tools package.
data_Nb3GeS6
_symmetry_space_group_name_H-M  'P6_3/mcm'
_cell_length_a       5.83701
_cell_length_b       5.83701
_cell_length_c       13.6209
_cell_angle_alpha    90
_cell_angle_beta     90
_cell_angle_gamma    120

_symmetry_Int_Tables_number  193
_chemical_formula_structural  Nb3GeS6
_chemical_formula_sum  Nb6Ge2S2
_cell_volume  401.89922235101534
_cell_formula_units_Z  2
loop_
  _symmetry_equiv_pos_site_id
 _symmetry_equiv_pos_as_xyz
 1  'x, y, z'
loop_
 _atom_site_type_symbol
 _atom_site_label
 _atom_site_symmetry_multiplicity
 _atom_site_fract_x
 _atom_site_fract_y
 _atom_site_fract_z
 _atom_site_fract_occupancy
 Ge  Ge1  1  0.00000  0.00000  0.24999  1
 Ge  Ge2  1  0.00000  0.00000  0.75001  1
 Nb  Nb1  1  0.33333  0.66667  0.50000  1
 Nb  Nb2  1  0.00000  0.00000  0.50000  1
 Nb  Nb3  1  0.00000  0.00000  0.00000  1
 Nb  Nb4  1  0.33333  0.66667  0.00000  1
 Nb  Nb5  1  0.66667  0.33333  0.00000  1
 Nb  Nb6  1  0.66667  0.33333  0.50000  1
 S  S1  1  0.33569  0.33569  0.88410  1
 S  S2  1  0.00000  0.66431  0.88410  1
 S  S3  1  0.66432  0.66432  0.38410  1
 S  S4  1  0.66432  0.66432  0.61590  1
 S  S5  1  0.33569  0.33569  0.11590  1
 S  S6  1  -0.00000  0.33568  0.38410  1
 S  S7  1  0.33568  -0.00000  0.38410  1
 S  S8  1  0.33568  -0.00000  0.61590  1
 S  S9  1  0.66431  0.00000  0.88410  1
 S  S10  1  -0.00000  0.33568  0.61590  1
 S  S11  1  0.66431  0.00000  0.11590  1
 S  S12  1  0.00000  0.66431  0.11590  1
