CIF file written using JARVIS-Tools package.
data_Te4Mo3WSe2S2
_symmetry_space_group_name_H-M  'P3m1'
_cell_length_a       3.408
_cell_length_b       3.40762
_cell_length_c       45.4239
_cell_angle_alpha    89.9998
_cell_angle_beta     90
_cell_angle_gamma    120.004

_symmetry_Int_Tables_number  156
_chemical_formula_structural  Te4Mo3WSe2S2
_chemical_formula_sum  Te4Mo3WSe2S2
_cell_volume  456.82513293768375
_cell_formula_units_Z  1
loop_
  _symmetry_equiv_pos_site_id
 _symmetry_equiv_pos_as_xyz
 1  'x, y, z'
loop_
 _atom_site_type_symbol
 _atom_site_label
 _atom_site_symmetry_multiplicity
 _atom_site_fract_x
 _atom_site_fract_y
 _atom_site_fract_z
 _atom_site_fract_occupancy
 Mo  Mo1  1  0.33321  0.66641  0.09395  1
 Mo  Mo2  1  0.33338  0.66675  0.46480  1
 Mo  Mo3  1  0.66675  0.33351  0.66263  1
 S  S1  1  0.33330  0.66661  0.31493  1
 S  S2  1  0.33348  0.66696  0.24849  1
 Se  Se1  1  0.66657  0.33314  0.05775  1
 Se  Se2  1  0.66640  0.33281  0.13003  1
 Te  Te1  1  0.33338  0.66677  0.70381  1
 Te  Te2  1  0.66679  0.33357  0.42336  1
 Te  Te3  1  0.66654  0.33308  0.50597  1
 Te  Te4  1  0.33353  0.66706  0.62140  1
 W  W1  1  0.66666  0.33332  0.28162  1
