CIF file written using JARVIS-Tools package.
data_Li2Cr3SbO8
_symmetry_space_group_name_H-M  'P6_3mc'
_cell_length_a       5.90431
_cell_length_b       5.90431
_cell_length_c       9.56166
_cell_angle_alpha    90
_cell_angle_beta     90
_cell_angle_gamma    120

_symmetry_Int_Tables_number  186
_chemical_formula_structural  Li2Cr3SbO8
_chemical_formula_sum  Li4Cr6Sb2O6
_cell_volume  288.67068265569714
_cell_formula_units_Z  2
loop_
  _symmetry_equiv_pos_site_id
 _symmetry_equiv_pos_as_xyz
 1  'x, y, z'
loop_
 _atom_site_type_symbol
 _atom_site_label
 _atom_site_symmetry_multiplicity
 _atom_site_fract_x
 _atom_site_fract_y
 _atom_site_fract_z
 _atom_site_fract_occupancy
 Cr  Cr1  1  0.33910  0.16955  0.78550  1
 Cr  Cr2  1  0.83045  0.16955  0.78550  1
 Cr  Cr3  1  0.83045  0.66090  0.78550  1
 Cr  Cr4  1  0.66090  0.83045  0.28550  1
 Cr  Cr5  1  0.16955  0.33910  0.28550  1
 Cr  Cr6  1  0.16955  0.83045  0.28550  1
 Li  Li1  1  0.66667  0.33333  0.09705  1
 Li  Li2  1  0.00000  0.00000  0.50758  1
 Li  Li3  1  0.00000  0.00000  0.00758  1
 Li  Li4  1  0.33333  0.66667  0.59705  1
 O  O1  1  0.51745  0.48255  0.65988  1
 O  O2  1  0.32573  0.16286  0.40363  1
 O  O3  1  0.48255  0.51745  0.15988  1
 O  O4  1  0.66667  0.33333  0.89154  1
 O  O5  1  0.00000  0.00000  0.69224  1
 O  O6  1  0.00000  0.00000  0.19224  1
 O  O7  1  0.83714  0.67427  0.40363  1
 O  O8  1  0.96510  0.48255  0.65988  1
 O  O9  1  0.16286  0.32573  0.90363  1
 O  O10  1  0.03490  0.51745  0.15988  1
 O  O11  1  0.48255  0.96510  0.15988  1
 O  O12  1  0.33333  0.66667  0.39154  1
 O  O13  1  0.51745  0.03490  0.65988  1
 O  O14  1  0.16286  0.83714  0.90363  1
 O  O15  1  0.83714  0.16286  0.40363  1
 O  O16  1  0.67427  0.83714  0.90363  1
 Sb  Sb1  1  0.33333  0.66667  0.01072  1
 Sb  Sb2  1  0.66667  0.33333  0.51072  1
