CIF file written using JARVIS-Tools package.
data_Te4Mo3S2
_symmetry_space_group_name_H-M  'Cmc2_1'
_cell_length_a       3.4403
_cell_length_b       14.2798
_cell_length_c       8.99829
_cell_angle_alpha    90.0111
_cell_angle_beta     78.9779
_cell_angle_gamma    89.9997

_symmetry_Int_Tables_number  36
_chemical_formula_structural  Te4Mo3S2
_chemical_formula_sum  Te8Mo6S4
_cell_volume  433.90276865596473
_cell_formula_units_Z  2
loop_
  _symmetry_equiv_pos_site_id
 _symmetry_equiv_pos_as_xyz
 1  'x, y, z'
loop_
 _atom_site_type_symbol
 _atom_site_label
 _atom_site_symmetry_multiplicity
 _atom_site_fract_x
 _atom_site_fract_y
 _atom_site_fract_z
 _atom_site_fract_occupancy
 Mo  Mo1  1  0.43702  0.74439  0.12591  1
 Mo  Mo2  1  0.57093  0.25602  0.85822  1
 Mo  Mo3  1  0.76241  0.75602  0.47512  1
 Mo  Mo4  1  0.89632  0.24439  0.20742  1
 Mo  Mo5  1  0.10045  0.74965  0.79904  1
 Mo  Mo6  1  0.23288  0.24966  0.53429  1
 S  S1  1  0.54440  0.84871  0.91113  1
 S  S2  1  0.12174  0.15304  0.75661  1
 S  S3  1  0.21163  0.65304  0.57666  1
 S  S4  1  0.78890  0.34872  0.42226  1
 Te  Te1  1  0.12788  0.38966  0.74431  1
 Te  Te2  1  0.45017  0.37655  0.09972  1
 Te  Te3  1  0.55033  0.61325  0.89928  1
 Te  Te4  1  0.46191  0.11870  0.07626  1
 Te  Te5  1  0.88312  0.87654  0.23368  1
 Te  Te6  1  0.87147  0.61870  0.25699  1
 Te  Te7  1  0.78305  0.11326  0.43397  1
 Te  Te8  1  0.20540  0.88967  0.58912  1
