CIF file written using JARVIS-Tools package.
data_RuOF4
_symmetry_space_group_name_H-M  'P2_1/c'
_cell_length_a       6.14177
_cell_length_b       8.41875
_cell_length_c       8.69315
_cell_angle_alpha    90
_cell_angle_beta     134.009
_cell_angle_gamma    90

_symmetry_Int_Tables_number  14
_chemical_formula_structural  RuOF4
_chemical_formula_sum  Ru4O4F6
_cell_volume  323.283299706667
_cell_formula_units_Z  4
loop_
  _symmetry_equiv_pos_site_id
 _symmetry_equiv_pos_as_xyz
 1  'x, y, z'
loop_
 _atom_site_type_symbol
 _atom_site_label
 _atom_site_symmetry_multiplicity
 _atom_site_fract_x
 _atom_site_fract_y
 _atom_site_fract_z
 _atom_site_fract_occupancy
 F  F1  1  0.00850  0.37961  0.74267  1
 F  F2  1  0.83095  0.11112  0.87138  1
 F  F3  1  0.55772  0.12585  0.42543  1
 F  F4  1  0.60347  0.87816  0.93168  1
 F  F5  1  0.99150  0.87961  0.75733  1
 F  F6  1  0.60347  0.62184  0.43168  1
 F  F7  1  0.44228  0.87415  0.57457  1
 F  F8  1  0.44228  0.62585  0.07457  1
 F  F9  1  0.83095  0.38888  0.37138  1
 F  F10  1  0.55772  0.37415  0.92543  1
 F  F11  1  0.16905  0.88888  0.12862  1
 F  F12  1  0.00850  0.12039  0.24267  1
 F  F13  1  0.16905  0.61112  0.62862  1
 F  F14  1  0.39653  0.12184  0.06832  1
 F  F15  1  0.39653  0.37816  0.56832  1
 F  F16  1  0.99150  0.62039  0.25733  1
 O  O1  1  0.81884  0.62618  0.85917  1
 O  O2  1  0.18116  0.12618  0.64083  1
 O  O3  1  0.81884  0.87382  0.35917  1
 O  O4  1  0.18116  0.37382  0.14083  1
 Ru  Ru1  1  0.19704  0.18078  0.15148  1
 Ru  Ru2  1  0.19704  0.31922  0.65148  1
 Ru  Ru3  1  0.80296  0.68078  0.34852  1
 Ru  Ru4  1  0.80296  0.81922  0.84852  1
