CIF file written using JARVIS-Tools package.
data_Zn3Cr2O7
_symmetry_space_group_name_H-M  'Cmc2_1'
_cell_length_a       5.09886
_cell_length_b       5.09976
_cell_length_c       9.50547
_cell_angle_alpha    105.56
_cell_angle_beta     90
_cell_angle_gamma    90

_symmetry_Int_Tables_number  36
_chemical_formula_structural  Zn3Cr2O7
_chemical_formula_sum  Zn6Cr4O4
_cell_volume  238.1116271414741
_cell_formula_units_Z  2
loop_
  _symmetry_equiv_pos_site_id
 _symmetry_equiv_pos_as_xyz
 1  'x, y, z'
loop_
 _atom_site_type_symbol
 _atom_site_label
 _atom_site_symmetry_multiplicity
 _atom_site_fract_x
 _atom_site_fract_y
 _atom_site_fract_z
 _atom_site_fract_occupancy
 Cr  Cr1  1  0.75411  0.35277  0.20296  1
 Cr  Cr2  1  0.25411  0.64723  0.79704  1
 Cr  Cr3  1  0.25411  0.85019  0.20296  1
 Cr  Cr4  1  0.75411  0.14981  0.79704  1
 O  O1  1  0.81943  0.36291  0.00000  1
 O  O2  1  0.68445  0.94554  0.59591  1
 O  O3  1  0.93709  0.00603  0.15417  1
 O  O4  1  0.18445  0.65037  0.59591  1
 O  O5  1  0.68445  0.34963  0.40409  1
 O  O6  1  0.07181  0.29785  0.74576  1
 O  O7  1  0.18445  0.05446  0.40409  1
 O  O8  1  0.57181  0.44791  0.74576  1
 O  O9  1  0.07181  0.55209  0.25424  1
 O  O10  1  0.43709  -0.00603  0.84583  1
 O  O11  1  0.43709  0.14814  0.15417  1
 O  O12  1  0.57181  0.70215  0.25424  1
 O  O13  1  0.31943  0.63709  -0.00000  1
 O  O14  1  0.93709  0.85186  0.84583  1
 Zn  Zn1  1  0.29354  0.02968  0.60090  1
 Zn  Zn2  1  0.79354  0.97032  0.39910  1
 Zn  Zn3  1  0.29354  0.42878  0.39910  1
 Zn  Zn4  1  0.79354  0.57122  0.60090  1
 Zn  Zn5  1  0.21860  0.25505  0.00000  1
 Zn  Zn6  1  0.71860  0.74495  -0.00000  1
