CIF file written using JARVIS-Tools package.
data_Tb4InRh
_symmetry_space_group_name_H-M  'F-43m'
_cell_length_a       9.62906
_cell_length_b       9.62906
_cell_length_c       9.62906
_cell_angle_alpha    60
_cell_angle_beta     60
_cell_angle_gamma    60

_symmetry_Int_Tables_number  216
_chemical_formula_structural  Tb4InRh
_chemical_formula_sum  Tb6In4Rh4
_cell_volume  631.3007636287281
_cell_formula_units_Z  4
loop_
  _symmetry_equiv_pos_site_id
 _symmetry_equiv_pos_as_xyz
 1  'x, y, z'
loop_
 _atom_site_type_symbol
 _atom_site_label
 _atom_site_symmetry_multiplicity
 _atom_site_fract_x
 _atom_site_fract_y
 _atom_site_fract_z
 _atom_site_fract_occupancy
 In  In1  1  0.41691  0.41691  0.74926  1
 In  In2  1  0.74926  0.41691  0.41691  1
 In  In3  1  0.41691  0.74926  0.41691  1
 In  In4  1  0.41691  0.41691  0.41691  1
 Rh  Rh1  1  0.85764  0.85764  0.42708  1
 Rh  Rh2  1  0.42708  0.85764  0.85764  1
 Rh  Rh3  1  0.85764  0.42708  0.85764  1
 Rh  Rh4  1  0.85764  0.85764  0.85764  1
 Tb  Tb1  1  0.18979  0.18979  0.81021  1
 Tb  Tb2  1  0.18979  0.81021  0.81021  1
 Tb  Tb3  1  0.18979  0.81021  0.18979  1
 Tb  Tb4  1  0.04943  0.65019  0.65019  1
 Tb  Tb5  1  0.81021  0.18979  0.81021  1
 Tb  Tb6  1  0.65019  0.65019  0.65019  1
 Tb  Tb7  1  0.06217  0.43783  0.43783  1
 Tb  Tb8  1  0.81021  0.81021  0.18979  1
 Tb  Tb9  1  0.65019  0.65019  0.04943  1
 Tb  Tb10  1  0.06217  0.06217  0.43783  1
 Tb  Tb11  1  0.43783  0.06217  0.06217  1
 Tb  Tb12  1  0.65019  0.04943  0.65019  1
 Tb  Tb13  1  0.81021  0.18979  0.18979  1
 Tb  Tb14  1  0.43783  0.43783  0.06217  1
 Tb  Tb15  1  0.43783  0.06217  0.43783  1
 Tb  Tb16  1  0.06217  0.43783  0.06217  1
