CIF file written using JARVIS-Tools package.
data_Sr3In2P4
_symmetry_space_group_name_H-M  'Pnnm'
_cell_length_a       4.34803
_cell_length_b       6.83427
_cell_length_c       16.3769
_cell_angle_alpha    90
_cell_angle_beta     90
_cell_angle_gamma    90

_symmetry_Int_Tables_number  58
_chemical_formula_structural  Sr3In2P4
_chemical_formula_sum  Sr6In4P8
_cell_volume  486.65109111235
_cell_formula_units_Z  2
loop_
  _symmetry_equiv_pos_site_id
 _symmetry_equiv_pos_as_xyz
 1  'x, y, z'
loop_
 _atom_site_type_symbol
 _atom_site_label
 _atom_site_symmetry_multiplicity
 _atom_site_fract_x
 _atom_site_fract_y
 _atom_site_fract_z
 _atom_site_fract_occupancy
 In  In1  1  0.50000  0.36356  0.08601  1
 In  In2  1  0.50000  0.63644  0.91399  1
 In  In3  1  0.00000  0.86356  0.41399  1
 In  In4  1  0.00000  0.13644  0.58601  1
 P  P1  1  0.50000  0.74148  0.06846  1
 P  P2  1  0.00000  0.75852  0.56846  1
 P  P3  1  0.00000  0.24148  0.43154  1
 P  P4  1  0.50000  0.25852  0.93154  1
 P  P5  1  0.50000  0.74004  0.33245  1
 P  P6  1  0.50000  0.25996  0.66755  1
 P  P7  1  0.00000  0.24004  0.16755  1
 P  P8  1  0.00000  0.75996  0.83245  1
 Sr  Sr1  1  0.00000  0.00000  0.00000  1
 Sr  Sr2  1  0.00000  0.71013  0.19817  1
 Sr  Sr3  1  0.50000  0.78987  0.69817  1
 Sr  Sr4  1  0.50000  0.21013  0.30183  1
 Sr  Sr5  1  0.00000  0.28987  0.80183  1
 Sr  Sr6  1  0.50000  0.50000  0.50000  1
