CIF file written using JARVIS-Tools package.
data_Ca3Co2O7
_symmetry_space_group_name_H-M  'Cmc2_1'
_cell_length_a       5.23351
_cell_length_b       5.1873
_cell_length_c       10.0761
_cell_angle_alpha    104.916
_cell_angle_beta     90
_cell_angle_gamma    90

_symmetry_Int_Tables_number  36
_chemical_formula_structural  Ca3Co2O7
_chemical_formula_sum  Ca6Co4O4
_cell_volume  264.3256192641864
_cell_formula_units_Z  2
loop_
  _symmetry_equiv_pos_site_id
 _symmetry_equiv_pos_as_xyz
 1  'x, y, z'
loop_
 _atom_site_type_symbol
 _atom_site_label
 _atom_site_symmetry_multiplicity
 _atom_site_fract_x
 _atom_site_fract_y
 _atom_site_fract_z
 _atom_site_fract_occupancy
 Ca  Ca1  1  0.70528  0.75724  -0.00000  1
 Ca  Ca2  1  0.20528  0.24276  0.00000  1
 Ca  Ca3  1  0.78599  0.56599  0.62592  1
 Ca  Ca4  1  0.28599  0.43401  0.37408  1
 Ca  Ca5  1  0.78599  0.94007  0.37408  1
 Ca  Ca6  1  0.28599  0.05993  0.62592  1
 Co  Co1  1  0.74863  0.34670  0.19336  1
 Co  Co2  1  0.24863  0.65330  0.80664  1
 Co  Co3  1  0.24863  0.84666  0.19336  1
 Co  Co4  1  0.74863  0.15334  0.80664  1
 O  O1  1  0.74773  0.01616  0.60957  1
 O  O2  1  0.95203  0.03700  0.16874  1
 O  O3  1  0.24773  0.59341  0.60957  1
 O  O4  1  0.74773  0.40659  0.39043  1
 O  O5  1  0.04397  0.34472  0.78251  1
 O  O6  1  0.24773  0.98384  0.39043  1
 O  O7  1  0.75803  0.31819  0.00000  1
 O  O8  1  0.04397  0.56221  0.21749  1
 O  O9  1  0.95203  0.86826  0.83126  1
 O  O10  1  0.45203  0.13174  0.16874  1
 O  O11  1  0.54397  0.65528  0.21749  1
 O  O12  1  0.25803  0.68181  -0.00000  1
 O  O13  1  0.54397  0.43779  0.78251  1
 O  O14  1  0.45203  0.96300  0.83126  1
