CIF file written using JARVIS-Tools package.
data_Sn7Ir3
_symmetry_space_group_name_H-M  'Im-3m'
_cell_length_a       8.26661
_cell_length_b       8.26661
_cell_length_c       8.26661
_cell_angle_alpha    109.471
_cell_angle_beta     109.471
_cell_angle_gamma    109.471

_symmetry_Int_Tables_number  229
_chemical_formula_structural  Sn7Ir3
_chemical_formula_sum  Sn4Ir6
_cell_volume  434.87106741173903
_cell_formula_units_Z  2
loop_
  _symmetry_equiv_pos_site_id
 _symmetry_equiv_pos_as_xyz
 1  'x, y, z'
loop_
 _atom_site_type_symbol
 _atom_site_label
 _atom_site_symmetry_multiplicity
 _atom_site_fract_x
 _atom_site_fract_y
 _atom_site_fract_z
 _atom_site_fract_occupancy
 Ir  Ir1  1  -0.00000  0.34081  0.34081  1
 Ir  Ir2  1  0.65919  0.65919  0.00000  1
 Ir  Ir3  1  0.34081  0.34081  -0.00000  1
 Ir  Ir4  1  0.00000  0.65919  0.65919  1
 Ir  Ir5  1  0.34081  0.00000  0.34081  1
 Ir  Ir6  1  0.65919  0.00000  0.65919  1
 Sn  Sn1  1  0.25000  0.75000  0.50000  1
 Sn  Sn2  1  0.67065  0.00000  -0.00000  1
 Sn  Sn3  1  0.00000  0.00000  0.67065  1
 Sn  Sn4  1  0.00000  0.67065  0.00000  1
 Sn  Sn5  1  0.67065  0.67065  0.67065  1
 Sn  Sn6  1  0.50000  0.25000  0.75000  1
 Sn  Sn7  1  0.75000  0.25000  0.50000  1
 Sn  Sn8  1  0.50000  0.75000  0.25000  1
 Sn  Sn9  1  0.75000  0.50000  0.25000  1
 Sn  Sn10  1  0.25000  0.50000  0.75000  1
 Sn  Sn11  1  0.32935  0.32935  0.32935  1
 Sn  Sn12  1  0.32935  0.00000  0.00000  1
 Sn  Sn13  1  -0.00000  0.32935  -0.00000  1
 Sn  Sn14  1  0.00000  0.00000  0.32935  1
