CIF file written using JARVIS-Tools package.
data_Y2C3
_symmetry_space_group_name_H-M  'I-43d'
_cell_length_a       7.13949
_cell_length_b       7.13949
_cell_length_c       7.13949
_cell_angle_alpha    109.471
_cell_angle_beta     109.471
_cell_angle_gamma    109.471

_symmetry_Int_Tables_number  220
_chemical_formula_structural  Y2C3
_chemical_formula_sum  Y8C2
_cell_volume  280.143370413863
_cell_formula_units_Z  4
loop_
  _symmetry_equiv_pos_site_id
 _symmetry_equiv_pos_as_xyz
 1  'x, y, z'
loop_
 _atom_site_type_symbol
 _atom_site_label
 _atom_site_symmetry_multiplicity
 _atom_site_fract_x
 _atom_site_fract_y
 _atom_site_fract_z
 _atom_site_fract_occupancy
 C  C1  1  0.04425  0.75000  0.79425  1
 C  C2  1  0.75000  0.95575  0.20575  1
 C  C3  1  0.29425  0.25000  0.54425  1
 C  C4  1  0.54425  0.29425  0.25000  1
 C  C5  1  0.20575  0.75000  0.95575  1
 C  C6  1  0.95575  0.20575  0.75000  1
 C  C7  1  0.25000  0.70575  0.45575  1
 C  C8  1  0.70575  0.45575  0.25000  1
 C  C9  1  0.75000  0.79425  0.04425  1
 C  C10  1  0.45575  0.25000  0.70575  1
 C  C11  1  0.79425  0.04425  0.75000  1
 C  C12  1  0.25000  0.54425  0.29425  1
 Y  Y1  1  0.89860  0.50000  0.00000  1
 Y  Y2  1  0.60140  0.60140  0.60140  1
 Y  Y3  1  0.39860  0.50000  0.00000  1
 Y  Y4  1  0.50000  -0.00000  0.39860  1
 Y  Y5  1  -0.00000  0.39860  0.50000  1
 Y  Y6  1  0.50000  -0.00000  0.89860  1
 Y  Y7  1  -0.00000  0.89860  0.50000  1
 Y  Y8  1  0.10140  0.10140  0.10140  1
