CIF file written using JARVIS-Tools package.
data_Sr3Ru2O7
_symmetry_space_group_name_H-M  'I4/mmm'
_cell_length_a       3.89285
_cell_length_b       3.89285
_cell_length_c       10.8006
_cell_angle_alpha    100.382
_cell_angle_beta     100.382
_cell_angle_gamma    90

_symmetry_Int_Tables_number  139
_chemical_formula_structural  Sr3Ru2O7
_chemical_formula_sum  Sr3Ru2O7
_cell_volume  158.27062563910002
_cell_formula_units_Z  1
loop_
  _symmetry_equiv_pos_site_id
 _symmetry_equiv_pos_as_xyz
 1  'x, y, z'
loop_
 _atom_site_type_symbol
 _atom_site_label
 _atom_site_symmetry_multiplicity
 _atom_site_fract_x
 _atom_site_fract_y
 _atom_site_fract_z
 _atom_site_fract_occupancy
 O  O1  1  0.40238  0.90238  0.80476  1
 O  O2  1  0.90238  0.40238  0.80476  1
 O  O3  1  0.59762  0.09762  0.19524  1
 O  O4  1  0.09762  0.59762  0.19524  1
 O  O5  1  0.80321  0.80321  0.60642  1
 O  O6  1  0.00000  0.00000  0.00000  1
 O  O7  1  0.19679  0.19679  0.39358  1
 Ru  Ru1  1  0.09862  0.09862  0.19723  1
 Ru  Ru2  1  0.90138  0.90138  0.80277  1
 Sr  Sr1  1  0.50000  0.50000  0.00000  1
 Sr  Sr2  1  0.68606  0.68606  0.37212  1
 Sr  Sr3  1  0.31394  0.31394  0.62788  1
