CIF file written using JARVIS-Tools package.
data_Tb2Si3
_symmetry_space_group_name_H-M  'Cmcm'
_cell_length_a       4.34013
_cell_length_b       4.17684
_cell_length_c       12.2513
_cell_angle_alpha    99.8149
_cell_angle_beta     90
_cell_angle_gamma    90

_symmetry_Int_Tables_number  63
_chemical_formula_structural  Tb2Si3
_chemical_formula_sum  Tb4Si6
_cell_volume  218.84098491479986
_cell_formula_units_Z  2
loop_
  _symmetry_equiv_pos_site_id
 _symmetry_equiv_pos_as_xyz
 1  'x, y, z'
loop_
 _atom_site_type_symbol
 _atom_site_label
 _atom_site_symmetry_multiplicity
 _atom_site_fract_x
 _atom_site_fract_y
 _atom_site_fract_z
 _atom_site_fract_occupancy
 Si  Si1  1  0.25000  0.48013  0.96027  1
 Si  Si2  1  0.75000  0.51987  0.03973  1
 Si  Si3  1  0.25000  0.83538  0.67076  1
 Si  Si4  1  0.75000  0.16462  0.32924  1
 Si  Si5  1  0.75000  0.06919  0.13837  1
 Si  Si6  1  0.25000  0.93081  0.86163  1
 Tb  Tb1  1  0.25000  0.25257  0.50515  1
 Tb  Tb2  1  0.75000  0.74743  0.49485  1
 Tb  Tb3  1  0.25000  0.61663  0.23325  1
 Tb  Tb4  1  0.75000  0.38337  0.76675  1
