CIF file written using JARVIS-Tools package.
data_MnSb2S4
_symmetry_space_group_name_H-M  'Pnma'
_cell_length_a       3.84599
_cell_length_b       11.4756
_cell_length_c       14.3199
_cell_angle_alpha    90
_cell_angle_beta     90
_cell_angle_gamma    90

_symmetry_Int_Tables_number  62
_chemical_formula_structural  MnSb2S4
_chemical_formula_sum  Mn4Sb8S6
_cell_volume  632.0095342214244
_cell_formula_units_Z  4
loop_
  _symmetry_equiv_pos_site_id
 _symmetry_equiv_pos_as_xyz
 1  'x, y, z'
loop_
 _atom_site_type_symbol
 _atom_site_label
 _atom_site_symmetry_multiplicity
 _atom_site_fract_x
 _atom_site_fract_y
 _atom_site_fract_z
 _atom_site_fract_occupancy
 Mn  Mn1  1  0.75000  0.68329  0.66640  1
 Mn  Mn2  1  0.25000  0.81671  0.16640  1
 Mn  Mn3  1  0.75000  0.18329  0.83360  1
 Mn  Mn4  1  0.25000  0.31671  0.33360  1
 S  S1  1  0.75000  0.27576  0.99106  1
 S  S2  1  0.25000  0.72424  0.00894  1
 S  S3  1  0.75000  0.95543  0.09761  1
 S  S4  1  0.25000  0.54457  0.59761  1
 S  S5  1  0.75000  0.19630  0.26761  1
 S  S6  1  0.25000  0.80370  0.73239  1
 S  S7  1  0.25000  0.04457  0.90239  1
 S  S8  1  0.25000  0.30370  0.76761  1
 S  S9  1  0.25000  0.42170  0.18146  1
 S  S10  1  0.75000  0.07830  0.68146  1
 S  S11  1  0.25000  0.92170  0.31854  1
 S  S12  1  0.25000  0.22424  0.49106  1
 S  S13  1  0.75000  0.69630  0.23239  1
 S  S14  1  0.75000  0.57830  0.81854  1
 S  S15  1  0.75000  0.77576  0.50894  1
 S  S16  1  0.75000  0.45543  0.40239  1
 Sb  Sb1  1  0.25000  0.64155  0.43749  1
 Sb  Sb2  1  0.75000  0.85845  0.93749  1
 Sb  Sb3  1  0.25000  0.14155  0.06251  1
 Sb  Sb4  1  0.75000  0.35845  0.56251  1
 Sb  Sb5  1  0.25000  0.95807  0.61312  1
 Sb  Sb6  1  0.75000  0.04193  0.38688  1
 Sb  Sb7  1  0.75000  0.54193  0.11312  1
 Sb  Sb8  1  0.25000  0.45807  0.88688  1
