CIF file written using JARVIS-Tools package.
data_Y3Pt
_symmetry_space_group_name_H-M  'Pnma'
_cell_length_a       6.49061
_cell_length_b       7.05393
_cell_length_c       9.56161
_cell_angle_alpha    90
_cell_angle_beta     90
_cell_angle_gamma    90

_symmetry_Int_Tables_number  62
_chemical_formula_structural  Y3Pt
_chemical_formula_sum  Y2Pt4
_cell_volume  437.7717699724123
_cell_formula_units_Z  4
loop_
  _symmetry_equiv_pos_site_id
 _symmetry_equiv_pos_as_xyz
 1  'x, y, z'
loop_
 _atom_site_type_symbol
 _atom_site_label
 _atom_site_symmetry_multiplicity
 _atom_site_fract_x
 _atom_site_fract_y
 _atom_site_fract_z
 _atom_site_fract_occupancy
 Pt  Pt1  1  0.94974  0.38773  0.25000  1
 Pt  Pt2  1  0.44974  0.11227  0.75000  1
 Pt  Pt3  1  0.55026  0.88773  0.25000  1
 Pt  Pt4  1  0.05026  0.61227  0.75000  1
 Y  Y1  1  0.13131  0.02524  0.25000  1
 Y  Y2  1  0.63131  0.47476  0.75000  1
 Y  Y3  1  0.36869  0.52524  0.25000  1
 Y  Y4  1  0.86869  0.97476  0.75000  1
 Y  Y5  1  0.67885  0.18017  0.06046  1
 Y  Y6  1  0.17885  0.31983  0.93954  1
 Y  Y7  1  0.82115  0.68017  0.43954  1
 Y  Y8  1  0.32115  0.81983  0.56046  1
 Y  Y9  1  0.32115  0.81983  0.93954  1
 Y  Y10  1  0.82115  0.68017  0.06046  1
 Y  Y11  1  0.17885  0.31983  0.56046  1
 Y  Y12  1  0.67885  0.18017  0.43954  1
