CIF file written using JARVIS-Tools package.
data_NbW11Se24
_symmetry_space_group_name_H-M  'Pmm2'
_cell_length_a       5.79395
_cell_length_b       13.1311
_cell_length_c       10.0369
_cell_angle_alpha    90
_cell_angle_beta     90
_cell_angle_gamma    90

_symmetry_Int_Tables_number  25
_chemical_formula_structural  NbW11Se24
_chemical_formula_sum  NbWSe24
_cell_volume  763.6134558355069
_cell_formula_units_Z  1
loop_
  _symmetry_equiv_pos_site_id
 _symmetry_equiv_pos_as_xyz
 1  'x, y, z'
loop_
 _atom_site_type_symbol
 _atom_site_label
 _atom_site_symmetry_multiplicity
 _atom_site_fract_x
 _atom_site_fract_y
 _atom_site_fract_z
 _atom_site_fract_occupancy
 Nb  Nb1  1  0.66454  0.25000  0.00002  1
 Se  Se1  1  0.33524  0.12271  0.33377  1
 Se  Se2  1  0.32427  0.37830  0.00002  1
 Se  Se3  1  0.83461  0.12120  0.17038  1
 Se  Se4  1  0.66677  0.62235  0.99998  1
 Se  Se5  1  0.66677  0.87765  0.99998  1
 Se  Se6  1  0.83461  0.37880  0.17038  1
 Se  Se7  1  0.16678  0.62243  0.16663  1
 Se  Se8  1  0.83557  0.12217  0.50002  1
 Se  Se9  1  0.66679  0.87753  0.33329  1
 Se  Se10  1  0.16678  0.87757  0.83333  1
 Se  Se11  1  0.83461  0.12120  0.82966  1
 Se  Se12  1  0.66679  0.62247  0.66667  1
 Se  Se13  1  0.66679  0.87753  0.66667  1
 Se  Se14  1  0.83461  0.37880  0.82966  1
 Se  Se15  1  0.66679  0.62247  0.33329  1
 Se  Se16  1  0.16678  0.87757  0.16663  1
 Se  Se17  1  0.33524  0.37729  0.33377  1
 Se  Se18  1  0.33524  0.12271  0.66627  1
 Se  Se19  1  0.16678  0.62243  0.83333  1
 Se  Se20  1  0.32427  0.12170  0.00002  1
 Se  Se21  1  0.83557  0.37783  0.50002  1
 Se  Se22  1  0.16680  0.87757  0.49998  1
 Se  Se23  1  0.16680  0.62243  0.49998  1
 Se  Se24  1  0.33524  0.37729  0.66627  1
 W  W1  1  0.83346  0.75000  0.16660  1
 W  W2  1  0.66863  0.25000  0.33509  1
 W  W3  1  0.33338  0.75000  0.66664  1
 W  W4  1  0.33338  0.75000  0.33331  1
 W  W5  1  0.16443  0.25000  0.16856  1
 W  W6  1  0.33351  0.75000  0.99998  1
 W  W7  1  0.16443  0.25000  0.83148  1
 W  W8  1  0.83346  0.75000  0.83336  1
 W  W9  1  0.66863  0.25000  0.66495  1
 W  W10  1  0.83345  0.75000  0.49998  1
 W  W11  1  0.16827  0.25000  0.50002  1
