CIF file written using JARVIS-Tools package.
data_NbTeI3
_symmetry_space_group_name_H-M  'P2/c'
_cell_length_a       7.16389
_cell_length_b       7.48118
_cell_length_c       13.5996
_cell_angle_alpha    90
_cell_angle_beta     98.5267
_cell_angle_gamma    90

_symmetry_Int_Tables_number  13
_chemical_formula_structural  NbTeI3
_chemical_formula_sum  Nb4Te4I2
_cell_volume  720.8044303245277
_cell_formula_units_Z  4
loop_
  _symmetry_equiv_pos_site_id
 _symmetry_equiv_pos_as_xyz
 1  'x, y, z'
loop_
 _atom_site_type_symbol
 _atom_site_label
 _atom_site_symmetry_multiplicity
 _atom_site_fract_x
 _atom_site_fract_y
 _atom_site_fract_z
 _atom_site_fract_occupancy
 I  I1  1  0.26111  0.43692  0.30723  1
 I  I2  1  0.84785  0.68848  0.95506  1
 I  I3  1  0.73889  0.56308  0.69277  1
 I  I4  1  0.15215  0.31152  0.04494  1
 I  I5  1  0.84785  0.31152  0.45506  1
 I  I6  1  0.15215  0.68848  0.54494  1
 I  I7  1  0.63515  0.79729  0.42969  1
 I  I8  1  0.63515  0.20271  0.92969  1
 I  I9  1  0.36485  0.20271  0.57031  1
 I  I10  1  0.26111  0.56308  0.80723  1
 I  I11  1  0.73889  0.43692  0.19277  1
 I  I12  1  0.36485  0.79729  0.07031  1
 Nb  Nb1  1  0.06601  0.35517  0.65280  1
 Nb  Nb2  1  0.93399  0.35517  0.84720  1
 Nb  Nb3  1  0.93399  0.64483  0.34720  1
 Nb  Nb4  1  0.06601  0.64483  0.15280  1
 Te  Te1  1  0.82155  0.08202  0.69666  1
 Te  Te2  1  0.17845  0.08202  0.80334  1
 Te  Te3  1  0.17845  0.91798  0.30334  1
 Te  Te4  1  0.82155  0.91798  0.19666  1
