CIF file written using JARVIS-Tools package.
data_PuAl3
_symmetry_space_group_name_H-M  'R-3m'
_cell_length_a       7.98245
_cell_length_b       7.98246
_cell_length_c       7.98245
_cell_angle_alpha    45.3164
_cell_angle_beta     45.3164
_cell_angle_gamma    45.3164

_symmetry_Int_Tables_number  166
_chemical_formula_structural  PuAl3
_chemical_formula_sum  Pu3Al9
_cell_volume  234.18983845500088
_cell_formula_units_Z  3
loop_
  _symmetry_equiv_pos_site_id
 _symmetry_equiv_pos_as_xyz
 1  'x, y, z'
loop_
 _atom_site_type_symbol
 _atom_site_label
 _atom_site_symmetry_multiplicity
 _atom_site_fract_x
 _atom_site_fract_y
 _atom_site_fract_z
 _atom_site_fract_occupancy
 Al  Al1  1  0.50000  0.50000  -0.00000  1
 Al  Al2  1  0.00000  0.50000  0.50000  1
 Al  Al3  1  0.50000  0.00000  0.50000  1
 Al  Al4  1  0.28952  0.75246  0.28952  1
 Al  Al5  1  0.28952  0.28952  0.75246  1
 Al  Al6  1  0.75246  0.28952  0.28952  1
 Al  Al7  1  0.24754  0.71048  0.71048  1
 Al  Al8  1  0.71048  0.24754  0.71048  1
 Al  Al9  1  0.71048  0.71048  0.24754  1
 Pu  Pu1  1  0.00000  0.00000  0.00000  1
 Pu  Pu2  1  0.21891  0.21891  0.21891  1
 Pu  Pu3  1  0.78109  0.78109  0.78109  1
