CIF file written using JARVIS-Tools package.
data_YbMgGe
_symmetry_space_group_name_H-M  'Pnma'
_cell_length_a       4.39835
_cell_length_b       7.40274
_cell_length_c       8.25703
_cell_angle_alpha    90
_cell_angle_beta     90
_cell_angle_gamma    90

_symmetry_Int_Tables_number  62
_chemical_formula_structural  YbMgGe
_chemical_formula_sum  Yb4Mg4Ge4
_cell_volume  268.84732252680567
_cell_formula_units_Z  4
loop_
  _symmetry_equiv_pos_site_id
 _symmetry_equiv_pos_as_xyz
 1  'x, y, z'
loop_
 _atom_site_type_symbol
 _atom_site_label
 _atom_site_symmetry_multiplicity
 _atom_site_fract_x
 _atom_site_fract_y
 _atom_site_fract_z
 _atom_site_fract_occupancy
 Ge  Ge1  1  0.75000  0.73508  0.38396  1
 Ge  Ge2  1  0.25000  0.26492  0.61604  1
 Ge  Ge3  1  0.75000  0.23508  0.11604  1
 Ge  Ge4  1  0.25000  0.76492  0.88396  1
 Mg  Mg1  1  0.75000  0.85643  0.06301  1
 Mg  Mg2  1  0.25000  0.14357  0.93699  1
 Mg  Mg3  1  0.75000  0.35643  0.43699  1
 Mg  Mg4  1  0.25000  0.64357  0.56301  1
 Yb  Yb1  1  0.75000  0.97886  0.67934  1
 Yb  Yb2  1  0.25000  0.02114  0.32066  1
 Yb  Yb3  1  0.75000  0.47886  0.82066  1
 Yb  Yb4  1  0.25000  0.52114  0.17934  1
