CIF file written using JARVIS-Tools package.
data_Cu3Mo2H2O10
_symmetry_space_group_name_H-M  'P-1'
_cell_length_a       5.38466
_cell_length_b       5.62686
_cell_length_c       7.57492
_cell_angle_alpha    103.207
_cell_angle_beta     106.545
_cell_angle_gamma    97.6909

_symmetry_Int_Tables_number  2
_chemical_formula_structural  Cu3Mo2H2O10
_chemical_formula_sum  Cu3Mo2H2O0
_cell_volume  209.26740728421424
_cell_formula_units_Z  1
loop_
  _symmetry_equiv_pos_site_id
 _symmetry_equiv_pos_as_xyz
 1  'x, y, z'
loop_
 _atom_site_type_symbol
 _atom_site_label
 _atom_site_symmetry_multiplicity
 _atom_site_fract_x
 _atom_site_fract_y
 _atom_site_fract_z
 _atom_site_fract_occupancy
 Cu  Cu1  1  0.22766  0.08854  0.19124  1
 Cu  Cu2  1  0.77234  0.91146  0.80876  1
 Cu  Cu3  1  0.00000  0.50000  -0.00000  1
 H  H1  1  0.76721  0.17246  0.13677  1
 H  H2  1  0.23279  0.82754  0.86323  1
 Mo  Mo1  1  0.68205  0.72422  0.30764  1
 Mo  Mo2  1  0.31795  0.27578  0.69236  1
 O  O1  1  0.88849  0.17771  0.05987  1
 O  O2  1  0.57082  0.54056  0.83137  1
 O  O3  1  0.97032  0.70438  0.23427  1
 O  O4  1  0.42918  0.45944  0.16863  1
 O  O5  1  0.42773  0.99752  0.73223  1
 O  O6  1  0.76962  0.73913  0.55413  1
 O  O7  1  0.57227  0.00248  0.26777  1
 O  O8  1  0.02968  0.29562  0.76573  1
 O  O9  1  0.23038  0.26087  0.44587  1
 O  O10  1  0.11151  0.82229  0.94013  1
