CIF file written using JARVIS-Tools package.
data_ZnNiP2O7
_symmetry_space_group_name_H-M  'P2_1/c'
_cell_length_a       6.99662
_cell_length_b       8.35294
_cell_length_c       9.02368
_cell_angle_alpha    90
_cell_angle_beta     113.805
_cell_angle_gamma    90

_symmetry_Int_Tables_number  14
_chemical_formula_structural  ZnNiP2O7
_chemical_formula_sum  Zn4Ni4P8O28
_cell_volume  482.5004989541824
_cell_formula_units_Z  4
loop_
  _symmetry_equiv_pos_site_id
 _symmetry_equiv_pos_as_xyz
 1  'x, y, z'
loop_
 _atom_site_type_symbol
 _atom_site_label
 _atom_site_symmetry_multiplicity
 _atom_site_fract_x
 _atom_site_fract_y
 _atom_site_fract_z
 _atom_site_fract_occupancy
 Ni  Ni1  1  0.22859  0.07479  0.61002  1
 Ni  Ni2  1  0.77141  0.92521  0.38998  1
 Ni  Ni3  1  0.77141  0.57479  0.88998  1
 Ni  Ni4  1  0.22859  0.42521  0.11002  1
 O  O1  1  0.47805  0.40893  0.34404  1
 O  O2  1  0.01934  0.58999  0.11963  1
 O  O3  1  0.44665  0.89101  0.60105  1
 O  O4  1  0.74493  0.32613  0.60400  1
 O  O5  1  0.98066  0.08999  0.38037  1
 O  O6  1  0.88122  0.75987  0.79893  1
 O  O7  1  0.98066  0.41001  0.88037  1
 O  O8  1  0.01934  0.91001  0.61963  1
 O  O9  1  0.36919  0.26392  0.54657  1
 O  O10  1  0.44665  0.60899  0.10105  1
 O  O11  1  0.55335  0.10899  0.39895  1
 O  O12  1  0.63081  0.73608  0.45343  1
 O  O13  1  0.25507  0.82613  0.89600  1
 O  O14  1  0.55335  0.39101  0.89895  1
 O  O15  1  0.10166  0.88712  0.17464  1
 O  O16  1  0.10166  0.61288  0.67464  1
 O  O17  1  0.74493  0.17387  0.10400  1
 O  O18  1  0.47805  0.09107  0.84404  1
 O  O19  1  0.88122  0.74013  0.29893  1
 O  O20  1  0.25507  0.67387  0.39600  1
 O  O21  1  0.52195  0.59107  0.65596  1
 O  O22  1  0.11878  0.25987  0.70107  1
 O  O23  1  0.63081  0.76392  0.95343  1
 O  O24  1  0.36919  0.23608  0.04657  1
 O  O25  1  0.52195  0.90893  0.15596  1
 O  O26  1  0.11878  0.24013  0.20107  1
 O  O27  1  0.89834  0.11288  0.82536  1
 O  O28  1  0.89834  0.38712  0.32536  1
 P  P1  1  0.94256  0.26907  0.76191  1
 P  P2  1  0.47256  0.72840  0.53229  1
 P  P3  1  0.94256  0.23093  0.26191  1
 P  P4  1  0.52744  0.22840  0.96771  1
 P  P5  1  0.05744  0.76907  0.73809  1
 P  P6  1  0.05744  0.73093  0.23809  1
 P  P7  1  0.52744  0.27160  0.46771  1
 P  P8  1  0.47256  0.77160  0.03229  1
 Zn  Zn1  1  0.30021  0.05458  0.17712  1
 Zn  Zn2  1  0.69979  0.55458  0.32288  1
 Zn  Zn3  1  0.30021  0.44542  0.67712  1
 Zn  Zn4  1  0.69979  0.94542  0.82288  1
