CIF file written using JARVIS-Tools package.
data_Te11Mo6S
_symmetry_space_group_name_H-M  'P31m'
_cell_length_a       6.12385
_cell_length_b       14.2025
_cell_length_c       6.12388
_cell_angle_alpha    89.9992
_cell_angle_beta     120.001
_cell_angle_gamma    89.9999

_symmetry_Int_Tables_number  157
_chemical_formula_structural  Te11Mo6S
_chemical_formula_sum  TeMo6S
_cell_volume  461.25720090876735
_cell_formula_units_Z  1
loop_
  _symmetry_equiv_pos_site_id
 _symmetry_equiv_pos_as_xyz
 1  'x, y, z'
loop_
 _atom_site_type_symbol
 _atom_site_label
 _atom_site_symmetry_multiplicity
 _atom_site_fract_x
 _atom_site_fract_y
 _atom_site_fract_z
 _atom_site_fract_occupancy
 Mo  Mo1  1  0.33334  0.74558  0.01600  1
 Mo  Mo2  1  -0.00001  0.25137  0.66664  1
 Mo  Mo3  1  0.01598  0.74558  0.33336  1
 Mo  Mo4  1  0.66666  0.25137  -0.00003  1
 Mo  Mo5  1  0.65070  0.74558  0.65072  1
 Mo  Mo6  1  0.33332  0.25010  0.33331  1
 S  S1  1  0.33335  0.64309  0.33337  1
 Te  Te1  1  0.66500  0.37947  0.66498  1
 Te  Te2  1  0.33333  0.12260  0.99883  1
 Te  Te3  1  0.33332  0.37946  0.00163  1
 Te  Te4  1  0.00000  0.61857  0.66669  1
 Te  Te5  1  0.99885  0.12260  0.33331  1
 Te  Te6  1  0.00165  0.37946  0.33330  1
 Te  Te7  1  0.00000  0.87113  0.66668  1
 Te  Te8  1  0.66668  0.61856  0.00003  1
 Te  Te9  1  0.66781  0.12260  0.66779  1
 Te  Te10  1  0.33334  0.88175  0.33336  1
 Te  Te11  1  0.66668  0.87114  0.00002  1
