CIF file written using JARVIS-Tools package.
data_Fe3W3C
_symmetry_space_group_name_H-M  'Fd-3m'
_cell_length_a       7.81456
_cell_length_b       7.81456
_cell_length_c       7.81456
_cell_angle_alpha    60
_cell_angle_beta     60
_cell_angle_gamma    60

_symmetry_Int_Tables_number  227
_chemical_formula_structural  Fe3W3C
_chemical_formula_sum  Fe2W2C4
_cell_volume  337.44170229350067
_cell_formula_units_Z  4
loop_
  _symmetry_equiv_pos_site_id
 _symmetry_equiv_pos_as_xyz
 1  'x, y, z'
loop_
 _atom_site_type_symbol
 _atom_site_label
 _atom_site_symmetry_multiplicity
 _atom_site_fract_x
 _atom_site_fract_y
 _atom_site_fract_z
 _atom_site_fract_occupancy
 C  C1  1  0.50000  0.00000  0.50000  1
 C  C2  1  0.00000  0.50000  0.50000  1
 C  C3  1  0.50000  0.50000  0.50000  1
 C  C4  1  0.50000  0.50000  0.00000  1
 Fe  Fe1  1  0.20224  0.20224  0.20224  1
 Fe  Fe2  1  0.00000  0.50000  -0.00000  1
 Fe  Fe3  1  0.79776  0.79776  0.10673  1
 Fe  Fe4  1  0.10673  0.79776  0.79776  1
 Fe  Fe5  1  0.00000  0.00000  0.50000  1
 Fe  Fe6  1  0.89327  0.20224  0.20224  1
 Fe  Fe7  1  0.20224  0.20224  0.89327  1
 Fe  Fe8  1  0.79776  0.79776  0.79776  1
 Fe  Fe9  1  0.79776  0.10673  0.79776  1
 Fe  Fe10  1  0.50000  0.00000  0.00000  1
 Fe  Fe11  1  0.00000  0.00000  0.00000  1
 Fe  Fe12  1  0.20224  0.89327  0.20224  1
 W  W1  1  0.42130  0.82870  0.42130  1
 W  W2  1  0.82870  0.42130  0.42130  1
 W  W3  1  0.57870  0.17130  0.57870  1
 W  W4  1  0.17130  0.57870  0.17130  1
 W  W5  1  0.42130  0.42130  0.82870  1
 W  W6  1  0.82870  0.42130  0.82870  1
 W  W7  1  0.57870  0.57870  0.17130  1
 W  W8  1  0.57870  0.17130  0.17130  1
 W  W9  1  0.17130  0.57870  0.57870  1
 W  W10  1  0.82870  0.82870  0.42130  1
 W  W11  1  0.17130  0.17130  0.57870  1
 W  W12  1  0.42130  0.82870  0.82870  1
