CIF file written using JARVIS-Tools package.
data_SrMgSn
_symmetry_space_group_name_H-M  'Pnma'
_cell_length_a       4.87461
_cell_length_b       8.16511
_cell_length_c       8.86002
_cell_angle_alpha    90
_cell_angle_beta     90
_cell_angle_gamma    90

_symmetry_Int_Tables_number  62
_chemical_formula_structural  SrMgSn
_chemical_formula_sum  Sr4Mg4Sn4
_cell_volume  352.64391505172426
_cell_formula_units_Z  4
loop_
  _symmetry_equiv_pos_site_id
 _symmetry_equiv_pos_as_xyz
 1  'x, y, z'
loop_
 _atom_site_type_symbol
 _atom_site_label
 _atom_site_symmetry_multiplicity
 _atom_site_fract_x
 _atom_site_fract_y
 _atom_site_fract_z
 _atom_site_fract_occupancy
 Mg  Mg1  1  0.75000  0.35035  0.06842  1
 Mg  Mg2  1  0.25000  0.64965  0.93158  1
 Mg  Mg3  1  0.75000  0.85035  0.43158  1
 Mg  Mg4  1  0.25000  0.14965  0.56842  1
 Sn  Sn1  1  0.25000  0.77733  0.60699  1
 Sn  Sn2  1  0.25000  0.27733  0.89301  1
 Sn  Sn3  1  0.75000  0.72267  0.10699  1
 Sn  Sn4  1  0.75000  0.22267  0.39301  1
 Sr  Sr1  1  0.75000  0.98859  0.81039  1
 Sr  Sr2  1  0.25000  0.51141  0.31039  1
 Sr  Sr3  1  0.25000  0.01141  0.18961  1
 Sr  Sr4  1  0.75000  0.48859  0.68961  1
