CIF file written using JARVIS-Tools package.
data_Ba2Pb
_symmetry_space_group_name_H-M  'Pnma'
_cell_length_a       5.74366
_cell_length_b       8.62149
_cell_length_c       10.7243
_cell_angle_alpha    90
_cell_angle_beta     90
_cell_angle_gamma    90

_symmetry_Int_Tables_number  62
_chemical_formula_structural  Ba2Pb
_chemical_formula_sum  Ba8Pb4
_cell_volume  531.0544701618165
_cell_formula_units_Z  4
loop_
  _symmetry_equiv_pos_site_id
 _symmetry_equiv_pos_as_xyz
 1  'x, y, z'
loop_
 _atom_site_type_symbol
 _atom_site_label
 _atom_site_symmetry_multiplicity
 _atom_site_fract_x
 _atom_site_fract_y
 _atom_site_fract_z
 _atom_site_fract_occupancy
 Ba  Ba1  1  0.25000  0.51867  0.18398  1
 Ba  Ba2  1  0.75000  0.48133  0.81602  1
 Ba  Ba3  1  0.25000  0.01867  0.31602  1
 Ba  Ba4  1  0.75000  0.98133  0.68398  1
 Ba  Ba5  1  0.75000  0.83901  0.08031  1
 Ba  Ba6  1  0.25000  0.16099  0.91969  1
 Ba  Ba7  1  0.75000  0.33901  0.41969  1
 Ba  Ba8  1  0.25000  0.66099  0.58031  1
 Pb  Pb1  1  0.25000  0.74527  0.89958  1
 Pb  Pb2  1  0.75000  0.25473  0.10042  1
 Pb  Pb3  1  0.25000  0.24527  0.60042  1
 Pb  Pb4  1  0.75000  0.75473  0.39958  1
