CIF file written using JARVIS-Tools package.
data_MgAl2Cl8
_symmetry_space_group_name_H-M  'C2/c'
_cell_length_a       7.56208
_cell_length_b       9.29241
_cell_length_c       9.53235
_cell_angle_alpha    76.7152
_cell_angle_beta     66.6309
_cell_angle_gamma    65.9901

_symmetry_Int_Tables_number  15
_chemical_formula_structural  MgAl2Cl8
_chemical_formula_sum  Mg2Al4Cl6
_cell_volume  559.8147906884437
_cell_formula_units_Z  2
loop_
  _symmetry_equiv_pos_site_id
 _symmetry_equiv_pos_as_xyz
 1  'x, y, z'
loop_
 _atom_site_type_symbol
 _atom_site_label
 _atom_site_symmetry_multiplicity
 _atom_site_fract_x
 _atom_site_fract_y
 _atom_site_fract_z
 _atom_site_fract_occupancy
 Al  Al1  1  0.34772  0.35454  0.46435  1
 Al  Al2  1  0.16660  0.14546  0.03565  1
 Al  Al3  1  0.65228  0.64546  0.53565  1
 Al  Al4  1  0.83340  0.85454  0.96435  1
 Cl  Cl1  1  0.16235  0.95806  0.22274  1
 Cl  Cl2  1  0.65524  0.22173  0.44966  1
 Cl  Cl3  1  0.32662  0.27827  0.05034  1
 Cl  Cl4  1  0.34476  0.77827  0.55034  1
 Cl  Cl5  1  0.67338  0.72173  0.94966  1
 Cl  Cl6  1  0.84219  0.54599  0.31412  1
 Cl  Cl7  1  0.85688  0.29099  0.02975  1
 Cl  Cl8  1  0.17762  0.20901  0.47025  1
 Cl  Cl9  1  0.70231  0.95401  0.18588  1
 Cl  Cl10  1  0.34315  0.54194  0.27726  1
 Cl  Cl11  1  0.82238  0.79099  0.52975  1
 Cl  Cl12  1  0.65685  0.45806  0.72274  1
 Cl  Cl13  1  0.83765  0.04194  0.77726  1
 Cl  Cl14  1  0.15781  0.45401  0.68588  1
 Cl  Cl15  1  0.29769  0.04599  0.81412  1
 Cl  Cl16  1  0.14312  0.70901  0.97025  1
 Mg  Mg1  1  -0.01418  0.25000  0.75000  1
 Mg  Mg2  1  0.01418  0.75000  0.25000  1
