CIF file written using JARVIS-Tools package.
data_ScRe2
_symmetry_space_group_name_H-M  'P6_3/mmc'
_cell_length_a       5.29482
_cell_length_b       5.29482
_cell_length_c       8.5978
_cell_angle_alpha    90
_cell_angle_beta     90
_cell_angle_gamma    120

_symmetry_Int_Tables_number  194
_chemical_formula_structural  ScRe2
_chemical_formula_sum  Sc4Re8
_cell_volume  208.7472447791777
_cell_formula_units_Z  4
loop_
  _symmetry_equiv_pos_site_id
 _symmetry_equiv_pos_as_xyz
 1  'x, y, z'
loop_
 _atom_site_type_symbol
 _atom_site_label
 _atom_site_symmetry_multiplicity
 _atom_site_fract_x
 _atom_site_fract_y
 _atom_site_fract_z
 _atom_site_fract_occupancy
 Re  Re1  1  0.65614  0.82807  0.25000  1
 Re  Re2  1  0.34386  0.17193  0.75000  1
 Re  Re3  1  0.82807  0.65614  0.75000  1
 Re  Re4  1  0.17193  0.82807  0.25000  1
 Re  Re5  1  0.17193  0.34386  0.25000  1
 Re  Re6  1  0.82807  0.17193  0.75000  1
 Re  Re7  1  0.00000  0.00000  0.50000  1
 Re  Re8  1  0.00000  0.00000  0.00000  1
 Sc  Sc1  1  0.33333  0.66667  0.56222  1
 Sc  Sc2  1  0.66667  0.33333  0.06222  1
 Sc  Sc3  1  0.66667  0.33333  0.43778  1
 Sc  Sc4  1  0.33333  0.66667  0.93778  1
