CIF file written using JARVIS-Tools package.
data_Dy3Cu4Ge4
_symmetry_space_group_name_H-M  'Immm'
_cell_length_a       4.19738
_cell_length_b       6.65625
_cell_length_c       8.00821
_cell_angle_alpha    114.557
_cell_angle_beta     105.193
_cell_angle_gamma    90

_symmetry_Int_Tables_number  71
_chemical_formula_structural  Dy3Cu4Ge4
_chemical_formula_sum  Dy3Cu4Ge4
_cell_volume  194.87257405736304
_cell_formula_units_Z  1
loop_
  _symmetry_equiv_pos_site_id
 _symmetry_equiv_pos_as_xyz
 1  'x, y, z'
loop_
 _atom_site_type_symbol
 _atom_site_label
 _atom_site_symmetry_multiplicity
 _atom_site_fract_x
 _atom_site_fract_y
 _atom_site_fract_z
 _atom_site_fract_occupancy
 Cu  Cu1  1  0.66831  0.85827  0.33663  1
 Cu  Cu2  1  0.33169  0.14173  0.66337  1
 Cu  Cu3  1  0.66834  0.47836  0.33668  1
 Cu  Cu4  1  0.33166  0.52164  0.66332  1
 Dy  Dy1  1  0.86952  0.86953  0.73904  1
 Dy  Dy2  1  0.13048  0.13047  0.26097  1
 Dy  Dy3  1  0.00000  0.50000  0.00000  1
 Ge  Ge1  1  0.78342  0.28340  0.56684  1
 Ge  Ge2  1  0.49999  0.80780  -0.00002  1
 Ge  Ge3  1  0.50001  0.19220  0.00002  1
 Ge  Ge4  1  0.21658  0.71660  0.43316  1
