CIF file written using JARVIS-Tools package.
data_NaPr2RuO6
_symmetry_space_group_name_H-M  'P2_1/c'
_cell_length_a       5.54995
_cell_length_b       5.97833
_cell_length_c       9.65123
_cell_angle_alpha    90
_cell_angle_beta     124.24
_cell_angle_gamma    90

_symmetry_Int_Tables_number  14
_chemical_formula_structural  NaPr2RuO6
_chemical_formula_sum  Na2Pr4Ru2O2
_cell_volume  264.7247155127083
_cell_formula_units_Z  2
loop_
  _symmetry_equiv_pos_site_id
 _symmetry_equiv_pos_as_xyz
 1  'x, y, z'
loop_
 _atom_site_type_symbol
 _atom_site_label
 _atom_site_symmetry_multiplicity
 _atom_site_fract_x
 _atom_site_fract_y
 _atom_site_fract_z
 _atom_site_fract_occupancy
 Na  Na1  1  0.00000  0.00000  0.00000  1
 Na  Na2  1  -0.00000  0.50000  0.50000  1
 O  O1  1  0.84144  0.32573  0.04994  1
 O  O2  1  0.27028  0.21907  0.93652  1
 O  O3  1  0.15856  0.67427  0.95006  1
 O  O4  1  0.84144  0.17427  0.54994  1
 O  O5  1  0.15856  0.82573  0.45006  1
 O  O6  1  0.38035  0.95647  0.26775  1
 O  O7  1  0.38035  0.54353  0.76775  1
 O  O8  1  0.61965  0.04353  0.73225  1
 O  O9  1  0.72972  0.78093  0.06348  1
 O  O10  1  0.27028  0.28093  0.43652  1
 O  O11  1  0.61965  0.45647  0.23225  1
 O  O12  1  0.72972  0.71907  0.56348  1
 Pr  Pr1  1  0.77231  0.42749  0.75232  1
 Pr  Pr2  1  0.22769  0.92749  0.74768  1
 Pr  Pr3  1  0.22769  0.57251  0.24768  1
 Pr  Pr4  1  0.77231  0.07251  0.25232  1
 Ru  Ru1  1  0.50000  0.00000  0.50000  1
 Ru  Ru2  1  0.50000  0.50000  0.00000  1
