CIF file written using JARVIS-Tools package.
data_Pr2B3Cl
_symmetry_space_group_name_H-M  'P6_3/mmc'
_cell_length_a       3.571
_cell_length_b       3.571
_cell_length_c       17.8818
_cell_angle_alpha    90
_cell_angle_beta     90
_cell_angle_gamma    120

_symmetry_Int_Tables_number  194
_chemical_formula_structural  Pr2B3Cl
_chemical_formula_sum  Pr4B6Cl2
_cell_volume  197.4786981790517
_cell_formula_units_Z  2
loop_
  _symmetry_equiv_pos_site_id
 _symmetry_equiv_pos_as_xyz
 1  'x, y, z'
loop_
 _atom_site_type_symbol
 _atom_site_label
 _atom_site_symmetry_multiplicity
 _atom_site_fract_x
 _atom_site_fract_y
 _atom_site_fract_z
 _atom_site_fract_occupancy
 B  B1  1  0.83356  0.16644  0.75000  1
 B  B2  1  0.16644  0.33287  0.25000  1
 B  B3  1  0.66713  0.83356  0.25000  1
 B  B4  1  0.33287  0.16644  0.75000  1
 B  B5  1  0.83356  0.66713  0.75000  1
 B  B6  1  0.16644  0.83356  0.25000  1
 Cl  Cl1  1  0.00000  0.00000  0.50000  1
 Cl  Cl2  1  0.00000  0.00000  0.00000  1
 Pr  Pr1  1  0.66667  0.33333  0.37233  1
 Pr  Pr2  1  0.33333  0.66667  0.87233  1
 Pr  Pr3  1  0.66667  0.33333  0.12767  1
 Pr  Pr4  1  0.33333  0.66667  0.62767  1
