CIF file written using JARVIS-Tools package.
data_Ba3NaIr2O9
_symmetry_space_group_name_H-M  'P6_3/mmc'
_cell_length_a       5.90875
_cell_length_b       5.90875
_cell_length_c       14.576
_cell_angle_alpha    90
_cell_angle_beta     90
_cell_angle_gamma    120

_symmetry_Int_Tables_number  194
_chemical_formula_structural  Ba3NaIr2O9
_chemical_formula_sum  Ba6Na2Ir4O8
_cell_volume  440.7166555823018
_cell_formula_units_Z  2
loop_
  _symmetry_equiv_pos_site_id
 _symmetry_equiv_pos_as_xyz
 1  'x, y, z'
loop_
 _atom_site_type_symbol
 _atom_site_label
 _atom_site_symmetry_multiplicity
 _atom_site_fract_x
 _atom_site_fract_y
 _atom_site_fract_z
 _atom_site_fract_occupancy
 Ba  Ba1  1  0.33333  0.66667  0.08403  1
 Ba  Ba2  1  0.00000  0.00000  0.25000  1
 Ba  Ba3  1  0.66667  0.33333  0.58403  1
 Ba  Ba4  1  0.66667  0.33333  0.91597  1
 Ba  Ba5  1  0.00000  0.00000  0.75000  1
 Ba  Ba6  1  0.33333  0.66667  0.41597  1
 Ir  Ir1  1  0.33333  0.66667  0.66127  1
 Ir  Ir2  1  0.33333  0.66667  0.83873  1
 Ir  Ir3  1  0.66667  0.33333  0.33873  1
 Ir  Ir4  1  0.66667  0.33333  0.16127  1
 Na  Na1  1  0.00000  0.00000  0.00000  1
 Na  Na2  1  0.00000  0.00000  0.50000  1
 O  O1  1  0.35678  0.17839  0.41182  1
 O  O2  1  0.17839  0.82161  0.91182  1
 O  O3  1  0.64322  0.82161  0.91182  1
 O  O4  1  0.48966  0.51034  0.75000  1
 O  O5  1  0.82161  0.64322  0.41182  1
 O  O6  1  0.35678  0.17839  0.08818  1
 O  O7  1  0.82161  0.17839  0.41182  1
 O  O8  1  0.17839  0.35678  0.91182  1
 O  O9  1  0.51034  0.48966  0.25000  1
 O  O10  1  0.82161  0.64322  0.08818  1
 O  O11  1  0.82161  0.17839  0.08818  1
 O  O12  1  0.64322  0.82161  0.58818  1
 O  O13  1  0.02068  0.51034  0.75000  1
 O  O14  1  0.17839  0.82161  0.58818  1
 O  O15  1  0.51034  0.02068  0.25000  1
 O  O16  1  0.48966  0.97932  0.75000  1
 O  O17  1  0.17839  0.35678  0.58818  1
 O  O18  1  0.97932  0.48966  0.25000  1
