CIF file written using JARVIS-Tools package.
data_Zn7Sb8Ru9
_symmetry_space_group_name_H-M  'Fm-3m'
_cell_length_a       8.50606
_cell_length_b       8.50606
_cell_length_c       8.50606
_cell_angle_alpha    60
_cell_angle_beta     60
_cell_angle_gamma    60

_symmetry_Int_Tables_number  225
_chemical_formula_structural  Zn7Sb8Ru9
_chemical_formula_sum  Zn7Sb8Ru9
_cell_volume  435.1805360357397
_cell_formula_units_Z  1
loop_
  _symmetry_equiv_pos_site_id
 _symmetry_equiv_pos_as_xyz
 1  'x, y, z'
loop_
 _atom_site_type_symbol
 _atom_site_label
 _atom_site_symmetry_multiplicity
 _atom_site_fract_x
 _atom_site_fract_y
 _atom_site_fract_z
 _atom_site_fract_occupancy
 Ru  Ru1  1  0.50000  0.50000  0.50000  1
 Ru  Ru2  1  0.87656  0.87656  0.37032  1
 Ru  Ru3  1  0.87656  0.87656  0.87656  1
 Ru  Ru4  1  0.12344  0.62968  0.12344  1
 Ru  Ru5  1  0.62968  0.12344  0.12344  1
 Ru  Ru6  1  0.12344  0.12344  0.62968  1
 Ru  Ru7  1  0.12344  0.12344  0.12344  1
 Ru  Ru8  1  0.37032  0.87656  0.87656  1
 Ru  Ru9  1  0.87656  0.37032  0.87656  1
 Sb  Sb1  1  0.27436  0.27436  0.72564  1
 Sb  Sb2  1  0.72564  0.27436  0.27436  1
 Sb  Sb3  1  0.27436  0.72564  0.72564  1
 Sb  Sb4  1  0.27436  0.72564  0.27436  1
 Sb  Sb5  1  0.72564  0.72564  0.27436  1
 Sb  Sb6  1  0.25000  0.25000  0.25000  1
 Sb  Sb7  1  0.75000  0.75000  0.75000  1
 Sb  Sb8  1  0.72564  0.27436  0.72564  1
 Zn  Zn1  1  0.00000  0.00000  0.00000  1
 Zn  Zn2  1  0.50000  0.50000  -0.00000  1
 Zn  Zn3  1  0.50000  0.00000  0.50000  1
 Zn  Zn4  1  0.00000  -0.00000  0.50000  1
 Zn  Zn5  1  0.00000  0.50000  -0.00000  1
 Zn  Zn6  1  0.00000  0.50000  0.50000  1
 Zn  Zn7  1  0.50000  0.00000  -0.00000  1
