CIF file written using JARVIS-Tools package.
data_Dy3Co6Sn5
_symmetry_space_group_name_H-M  'Immm'
_cell_length_a       4.32052
_cell_length_b       8.07647
_cell_length_c       8.07647
_cell_angle_alpha    72.8284
_cell_angle_beta     74.4859
_cell_angle_gamma    74.4859

_symmetry_Int_Tables_number  71
_chemical_formula_structural  Dy3Co6Sn5
_chemical_formula_sum  Dy3Co6Sn5
_cell_volume  253.95400595434714
_cell_formula_units_Z  1
loop_
  _symmetry_equiv_pos_site_id
 _symmetry_equiv_pos_as_xyz
 1  'x, y, z'
loop_
 _atom_site_type_symbol
 _atom_site_label
 _atom_site_symmetry_multiplicity
 _atom_site_fract_x
 _atom_site_fract_y
 _atom_site_fract_z
 _atom_site_fract_occupancy
 Co  Co1  1  0.89241  0.38014  0.83503  1
 Co  Co2  1  0.10759  0.61986  0.16497  1
 Co  Co3  1  0.89241  0.83503  0.38014  1
 Co  Co4  1  0.50000  0.69142  0.30858  1
 Co  Co5  1  0.50000  0.30858  0.69142  1
 Co  Co6  1  0.10759  0.16497  0.61986  1
 Dy  Dy1  1  0.68243  0.31757  0.31757  1
 Dy  Dy2  1  0.31757  0.68243  0.68243  1
 Dy  Dy3  1  0.00000  0.00000  0.00000  1
 Sn  Sn1  1  0.67543  0.98289  0.66625  1
 Sn  Sn2  1  0.32457  0.33375  0.01711  1
 Sn  Sn3  1  0.67543  0.66625  0.98289  1
 Sn  Sn4  1  -0.00000  0.50000  0.50000  1
 Sn  Sn5  1  0.32457  0.01711  0.33375  1
