CIF file written using JARVIS-Tools package.
data_Ta3Al2CoC
_symmetry_space_group_name_H-M  'Fd-3m'
_cell_length_a       8.20962
_cell_length_b       8.20962
_cell_length_c       8.20962
_cell_angle_alpha    60
_cell_angle_beta     60
_cell_angle_gamma    60

_symmetry_Int_Tables_number  227
_chemical_formula_structural  Ta3Al2CoC
_chemical_formula_sum  Ta2Al8Co4C4
_cell_volume  391.2497626712583
_cell_formula_units_Z  4
loop_
  _symmetry_equiv_pos_site_id
 _symmetry_equiv_pos_as_xyz
 1  'x, y, z'
loop_
 _atom_site_type_symbol
 _atom_site_label
 _atom_site_symmetry_multiplicity
 _atom_site_fract_x
 _atom_site_fract_y
 _atom_site_fract_z
 _atom_site_fract_occupancy
 Al  Al1  1  0.29307  0.29307  0.62080  1
 Al  Al2  1  0.70693  0.37920  0.70693  1
 Al  Al3  1  0.29307  0.29307  0.29307  1
 Al  Al4  1  0.37920  0.70693  0.70693  1
 Al  Al5  1  0.70693  0.70693  0.37920  1
 Al  Al6  1  0.62080  0.29307  0.29307  1
 Al  Al7  1  0.29307  0.62080  0.29307  1
 Al  Al8  1  0.70693  0.70693  0.70693  1
 C  C1  1  0.00000  0.00000  0.00000  1
 C  C2  1  0.50000  0.00000  0.00000  1
 C  C3  1  0.00000  0.00000  0.50000  1
 C  C4  1  0.00000  0.50000  0.00000  1
 Co  Co1  1  0.50000  0.50000  0.50000  1
 Co  Co2  1  0.50000  0.50000  0.00000  1
 Co  Co3  1  0.00000  0.50000  0.50000  1
 Co  Co4  1  0.50000  0.00000  0.50000  1
 Ta  Ta1  1  0.68621  0.06379  0.06379  1
 Ta  Ta2  1  0.31379  0.93621  0.31379  1
 Ta  Ta3  1  0.31379  0.31379  0.93621  1
 Ta  Ta4  1  0.93621  0.93621  0.31379  1
 Ta  Ta5  1  0.93621  0.31379  0.93621  1
 Ta  Ta6  1  0.68621  0.06379  0.68621  1
 Ta  Ta7  1  0.06379  0.68621  0.06379  1
 Ta  Ta8  1  0.06379  0.68621  0.68621  1
 Ta  Ta9  1  0.68621  0.68621  0.06379  1
 Ta  Ta10  1  0.06379  0.06379  0.68621  1
 Ta  Ta11  1  0.93621  0.31379  0.31379  1
 Ta  Ta12  1  0.31379  0.93621  0.93621  1
