CIF file written using JARVIS-Tools package.
data_Ca3Sn2S7
_symmetry_space_group_name_H-M  'Cmcm'
_cell_length_a       6.91592
_cell_length_b       7.08385
_cell_length_c       12.3109
_cell_angle_alpha    106.721
_cell_angle_beta     90
_cell_angle_gamma    90

_symmetry_Int_Tables_number  63
_chemical_formula_structural  Ca3Sn2S7
_chemical_formula_sum  Ca6Sn4S4
_cell_volume  577.6248652725999
_cell_formula_units_Z  2
loop_
  _symmetry_equiv_pos_site_id
 _symmetry_equiv_pos_as_xyz
 1  'x, y, z'
loop_
 _atom_site_type_symbol
 _atom_site_label
 _atom_site_symmetry_multiplicity
 _atom_site_fract_x
 _atom_site_fract_y
 _atom_site_fract_z
 _atom_site_fract_occupancy
 Ca  Ca1  1  0.25000  0.20146  -0.00000  1
 Ca  Ca2  1  0.75000  0.79854  0.00000  1
 Ca  Ca3  1  0.25000  0.40331  0.37024  1
 Ca  Ca4  1  0.75000  0.96693  0.37024  1
 Ca  Ca5  1  0.75000  0.59669  0.62976  1
 Ca  Ca6  1  0.25000  0.03307  0.62976  1
 S  S1  1  0.25000  0.61179  -0.00000  1
 S  S2  1  0.00000  0.92447  0.84894  1
 S  S3  1  0.25000  0.04967  0.41159  1
 S  S4  1  0.75000  0.36192  0.41159  1
 S  S5  1  0.75000  0.95033  0.58841  1
 S  S6  1  0.75000  0.38821  0.00000  1
 S  S7  1  0.50000  0.36094  0.72188  1
 S  S8  1  0.00000  0.36094  0.72188  1
 S  S9  1  0.00000  0.07553  0.15106  1
 S  S10  1  0.00000  0.63906  0.27812  1
 S  S11  1  0.25000  0.63808  0.58841  1
 S  S12  1  0.50000  0.07553  0.15106  1
 S  S13  1  0.50000  0.63906  0.27812  1
 S  S14  1  0.50000  0.92447  0.84894  1
 Sn  Sn1  1  0.25000  0.63338  0.79205  1
 Sn  Sn2  1  0.75000  0.15867  0.79205  1
 Sn  Sn3  1  0.75000  0.36662  0.20795  1
 Sn  Sn4  1  0.25000  0.84133  0.20795  1
