CIF file written using JARVIS-Tools package.
data_Li3Ti4O8
_symmetry_space_group_name_H-M  'R-3m'
_cell_length_a       5.90198
_cell_length_b       5.90194
_cell_length_c       5.94882
_cell_angle_alpha    60.2607
_cell_angle_beta     60.2592
_cell_angle_gamma    59.9991

_symmetry_Int_Tables_number  166
_chemical_formula_structural  Li3Ti4O8
_chemical_formula_sum  Li3Ti4O8
_cell_volume  147.09602490719985
_cell_formula_units_Z  1
loop_
  _symmetry_equiv_pos_site_id
 _symmetry_equiv_pos_as_xyz
 1  'x, y, z'
loop_
 _atom_site_type_symbol
 _atom_site_label
 _atom_site_symmetry_multiplicity
 _atom_site_fract_x
 _atom_site_fract_y
 _atom_site_fract_z
 _atom_site_fract_occupancy
 Li  Li1  1  0.00000  0.00000  0.50000  1
 Li  Li2  1  0.50000  0.50000  0.50000  1
 Li  Li3  1  0.00000  0.50000  0.50000  1
 O  O1  1  0.26209  0.22361  0.75220  1
 O  O2  1  0.25472  0.75473  0.23582  1
 O  O3  1  0.73789  0.23791  0.24781  1
 O  O4  1  0.72361  0.76209  0.75219  1
 O  O5  1  0.27639  0.23791  0.24781  1
 O  O6  1  0.26211  0.76209  0.75219  1
 O  O7  1  0.74528  0.24527  0.76418  1
 O  O8  1  0.73791  0.77639  0.24780  1
 Ti  Ti1  1  0.50000  0.50000  -0.00000  1
 Ti  Ti2  1  0.50000  0.00000  0.50000  1
 Ti  Ti3  1  0.50000  0.00000  -0.00000  1
 Ti  Ti4  1  0.00000  0.00000  0.00000  1
