CIF file written using JARVIS-Tools package.
data_LiAg2F4
_symmetry_space_group_name_H-M  'Pnma'
_cell_length_a       5.51674
_cell_length_b       7.28034
_cell_length_c       9.63063
_cell_angle_alpha    90
_cell_angle_beta     90
_cell_angle_gamma    90

_symmetry_Int_Tables_number  62
_chemical_formula_structural  LiAg2F4
_chemical_formula_sum  Li4Ag8F6
_cell_volume  386.8026196799029
_cell_formula_units_Z  4
loop_
  _symmetry_equiv_pos_site_id
 _symmetry_equiv_pos_as_xyz
 1  'x, y, z'
loop_
 _atom_site_type_symbol
 _atom_site_label
 _atom_site_symmetry_multiplicity
 _atom_site_fract_x
 _atom_site_fract_y
 _atom_site_fract_z
 _atom_site_fract_occupancy
 Ag  Ag1  1  0.52224  0.75000  0.15852  1
 Ag  Ag2  1  0.47776  0.25000  0.84148  1
 Ag  Ag3  1  0.97776  0.75000  0.65852  1
 Ag  Ag4  1  0.50000  0.00000  0.50000  1
 Ag  Ag5  1  0.50000  0.50000  0.50000  1
 Ag  Ag6  1  0.02224  0.25000  0.34148  1
 Ag  Ag7  1  0.00000  0.50000  0.00000  1
 Ag  Ag8  1  0.00000  0.00000  0.00000  1
 F  F1  1  0.70936  0.75000  0.37864  1
 F  F2  1  0.60129  0.25000  0.36795  1
 F  F3  1  0.10129  0.75000  0.13205  1
 F  F4  1  0.79064  0.75000  0.87864  1
 F  F5  1  0.20936  0.25000  0.12136  1
 F  F6  1  0.31676  0.96254  0.87969  1
 F  F7  1  0.68324  0.46254  0.12031  1
 F  F8  1  0.68324  0.03746  0.12031  1
 F  F9  1  0.18324  0.53746  0.37969  1
 F  F10  1  0.31676  0.53746  0.87969  1
 F  F11  1  0.29064  0.25000  0.62136  1
 F  F12  1  0.39871  0.75000  0.63205  1
 F  F13  1  0.89871  0.25000  0.86795  1
 F  F14  1  0.18324  0.96254  0.37969  1
 F  F15  1  0.81676  0.46254  0.62031  1
 F  F16  1  0.81676  0.03746  0.62031  1
 Li  Li1  1  0.47412  0.75000  0.82306  1
 Li  Li2  1  0.97412  0.25000  0.67694  1
 Li  Li3  1  0.02588  0.75000  0.32306  1
 Li  Li4  1  0.52588  0.25000  0.17694  1
