CIF file written using JARVIS-Tools package.
data_Li2CuSiO4
_symmetry_space_group_name_H-M  'C222_1'
_cell_length_a       5.26689
_cell_length_b       5.26689
_cell_length_c       6.19335
_cell_angle_alpha    90
_cell_angle_beta     90
_cell_angle_gamma    87.0894

_symmetry_Int_Tables_number  20
_chemical_formula_structural  Li2CuSiO4
_chemical_formula_sum  Li4Cu2Si2O8
_cell_volume  171.58287710649967
_cell_formula_units_Z  2
loop_
  _symmetry_equiv_pos_site_id
 _symmetry_equiv_pos_as_xyz
 1  'x, y, z'
loop_
 _atom_site_type_symbol
 _atom_site_label
 _atom_site_symmetry_multiplicity
 _atom_site_fract_x
 _atom_site_fract_y
 _atom_site_fract_z
 _atom_site_fract_occupancy
 Cu  Cu1  1  0.17956  0.17956  0.25000  1
 Cu  Cu2  1  0.82044  0.82044  0.75000  1
 Li  Li1  1  0.31401  0.68599  0.50000  1
 Li  Li2  1  0.18353  0.18353  0.75000  1
 Li  Li3  1  0.81647  0.81647  0.25000  1
 Li  Li4  1  0.68599  0.31401  0.00000  1
 O  O1  1  0.19103  0.79875  0.21925  1
 O  O2  1  0.20125  0.80897  0.78075  1
 O  O3  1  0.29623  0.36340  -0.00189  1
 O  O4  1  0.63660  0.70377  0.00189  1
 O  O5  1  0.70377  0.63660  0.49811  1
 O  O6  1  0.36340  0.29623  0.50189  1
 O  O7  1  0.80897  0.20125  0.71925  1
 O  O8  1  0.79875  0.19103  0.28075  1
 Si  Si1  1  0.32462  0.67538  0.00000  1
 Si  Si2  1  0.67538  0.32462  0.50000  1
