CIF file written using JARVIS-Tools package.
data_Tb3Al2
_symmetry_space_group_name_H-M  'P4_2/mnm'
_cell_length_a       8.25559
_cell_length_b       8.25559
_cell_length_c       7.5737
_cell_angle_alpha    90
_cell_angle_beta     90
_cell_angle_gamma    90

_symmetry_Int_Tables_number  136
_chemical_formula_structural  Tb3Al2
_chemical_formula_sum  Tb2Al8
_cell_volume  516.183672727383
_cell_formula_units_Z  4
loop_
  _symmetry_equiv_pos_site_id
 _symmetry_equiv_pos_as_xyz
 1  'x, y, z'
loop_
 _atom_site_type_symbol
 _atom_site_label
 _atom_site_symmetry_multiplicity
 _atom_site_fract_x
 _atom_site_fract_y
 _atom_site_fract_z
 _atom_site_fract_occupancy
 Al  Al1  1  0.88084  0.11916  0.80674  1
 Al  Al2  1  0.61916  0.61916  0.69326  1
 Al  Al3  1  0.88084  0.11916  0.19326  1
 Al  Al4  1  0.11916  0.88084  0.19326  1
 Al  Al5  1  0.61916  0.61916  0.30674  1
 Al  Al6  1  0.38084  0.38084  0.30674  1
 Al  Al7  1  0.11916  0.88084  0.80674  1
 Al  Al8  1  0.38084  0.38084  0.69326  1
 Tb  Tb1  1  0.00000  0.50000  0.25000  1
 Tb  Tb2  1  0.79709  0.79709  0.00000  1
 Tb  Tb3  1  0.20291  0.20291  0.00000  1
 Tb  Tb4  1  0.50000  0.00000  0.25000  1
 Tb  Tb5  1  0.85063  0.85063  0.50000  1
 Tb  Tb6  1  0.00000  0.50000  0.75000  1
 Tb  Tb7  1  0.50000  0.00000  0.75000  1
 Tb  Tb8  1  0.14937  0.14937  0.50000  1
 Tb  Tb9  1  0.35063  0.64937  0.00000  1
 Tb  Tb10  1  0.64937  0.35063  0.00000  1
 Tb  Tb11  1  0.70291  0.29709  0.50000  1
 Tb  Tb12  1  0.29709  0.70291  0.50000  1
