CIF file written using JARVIS-Tools package.
data_Ba5Mg18Si13
_symmetry_space_group_name_H-M  'P-62m'
_cell_length_a       14.5721
_cell_length_b       14.5721
_cell_length_c       4.50257
_cell_angle_alpha    90
_cell_angle_beta     90
_cell_angle_gamma    120

_symmetry_Int_Tables_number  189
_chemical_formula_structural  Ba5Mg18Si13
_chemical_formula_sum  Ba5Mg8Si3
_cell_volume  828.01195198232
_cell_formula_units_Z  1
loop_
  _symmetry_equiv_pos_site_id
 _symmetry_equiv_pos_as_xyz
 1  'x, y, z'
loop_
 _atom_site_type_symbol
 _atom_site_label
 _atom_site_symmetry_multiplicity
 _atom_site_fract_x
 _atom_site_fract_y
 _atom_site_fract_z
 _atom_site_fract_occupancy
 Ba  Ba1  1  0.18005  0.00000  0.50000  1
 Ba  Ba2  1  0.81995  0.81995  0.50000  1
 Ba  Ba3  1  0.00000  0.18005  0.50000  1
 Ba  Ba4  1  0.66667  0.33333  0.00000  1
 Ba  Ba5  1  0.33333  0.66667  0.00000  1
 Mg  Mg1  1  0.48351  0.12221  0.50000  1
 Mg  Mg2  1  0.62698  0.82231  0.00000  1
 Mg  Mg3  1  0.37302  0.19532  0.00000  1
 Mg  Mg4  1  0.82231  0.62698  0.00000  1
 Mg  Mg5  1  0.80468  0.17769  0.00000  1
 Mg  Mg6  1  0.00000  0.72190  0.50000  1
 Mg  Mg7  1  0.27810  0.27810  0.50000  1
 Mg  Mg8  1  0.72190  0.00000  0.50000  1
 Mg  Mg9  1  0.17769  0.80468  0.00000  1
 Mg  Mg10  1  0.87779  0.36131  0.50000  1
 Mg  Mg11  1  0.63869  0.51649  0.50000  1
 Mg  Mg12  1  0.51649  0.63869  0.50000  1
 Mg  Mg13  1  0.12221  0.48351  0.50000  1
 Mg  Mg14  1  -0.00000  0.55782  0.00000  1
 Mg  Mg15  1  0.44218  0.44218  0.00000  1
 Mg  Mg16  1  0.55782  -0.00000  0.00000  1
 Mg  Mg17  1  0.19532  0.37302  0.00000  1
 Mg  Mg18  1  0.36131  0.87779  0.50000  1
 Si  Si1  1  0.37072  0.00000  0.00000  1
 Si  Si2  1  0.16673  0.69160  0.50000  1
 Si  Si3  1  0.47513  0.30840  0.50000  1
 Si  Si4  1  0.30840  0.47513  0.50000  1
 Si  Si5  1  0.52487  0.83327  0.50000  1
 Si  Si6  1  0.00000  0.37072  0.00000  1
 Si  Si7  1  -0.00000  0.83269  0.00000  1
 Si  Si8  1  0.16731  0.16731  0.00000  1
 Si  Si9  1  0.83269  -0.00000  0.00000  1
 Si  Si10  1  0.62928  0.62928  0.00000  1
 Si  Si11  1  0.00000  0.00000  0.00000  1
 Si  Si12  1  0.83327  0.52487  0.50000  1
 Si  Si13  1  0.69160  0.16673  0.50000  1
