CIF file written using JARVIS-Tools package.
data_LiCu3F7
_symmetry_space_group_name_H-M  'C2/c'
_cell_length_a       6.88998
_cell_length_b       6.88997
_cell_length_c       6.94128
_cell_angle_alpha    65.9012
_cell_angle_beta     114.099
_cell_angle_gamma    115.872

_symmetry_Int_Tables_number  15
_chemical_formula_structural  LiCu3F7
_chemical_formula_sum  Li2Cu6F4
_cell_volume  259.804995917333
_cell_formula_units_Z  2
loop_
  _symmetry_equiv_pos_site_id
 _symmetry_equiv_pos_as_xyz
 1  'x, y, z'
loop_
 _atom_site_type_symbol
 _atom_site_label
 _atom_site_symmetry_multiplicity
 _atom_site_fract_x
 _atom_site_fract_y
 _atom_site_fract_z
 _atom_site_fract_occupancy
 Cu  Cu1  1  -0.00000  0.50000  0.50000  1
 Cu  Cu2  1  0.00000  0.50000  -0.00000  1
 Cu  Cu3  1  -0.00000  0.00000  0.50000  1
 Cu  Cu4  1  0.00000  0.00000  0.00000  1
 Cu  Cu5  1  0.50000  0.00000  0.50000  1
 Cu  Cu6  1  0.50000  0.00000  0.00000  1
 F  F1  1  0.89597  0.89597  0.75000  1
 F  F2  1  -0.00558  0.35457  0.80581  1
 F  F3  1  0.13851  0.30734  0.50906  1
 F  F4  1  0.86149  0.69266  0.49094  1
 F  F5  1  0.69266  0.86149  0.00906  1
 F  F6  1  0.10403  0.10403  0.25000  1
 F  F7  1  0.40696  0.68311  0.59151  1
 F  F8  1  0.00558  0.64543  0.19419  1
 F  F9  1  0.35457  -0.00558  0.69419  1
 F  F10  1  0.68311  0.40696  0.90849  1
 F  F11  1  0.31689  0.59304  0.09151  1
 F  F12  1  0.30734  0.13851  0.99094  1
 F  F13  1  0.59304  0.31689  0.40849  1
 F  F14  1  0.64543  0.00558  0.30581  1
 Li  Li1  1  0.50000  0.50000  -0.00000  1
 Li  Li2  1  0.50000  0.50000  0.50000  1
