CIF file written using JARVIS-Tools package.
data_Ca3Sn2S7
_symmetry_space_group_name_H-M  'I4/mmm'
_cell_length_a       4.9896
_cell_length_b       4.9896
_cell_length_c       12.2097
_cell_angle_alpha    101.79
_cell_angle_beta     101.79
_cell_angle_gamma    90

_symmetry_Int_Tables_number  139
_chemical_formula_structural  Ca3Sn2S7
_chemical_formula_sum  Ca3Sn2S7
_cell_volume  291.00601077913217
_cell_formula_units_Z  1
loop_
  _symmetry_equiv_pos_site_id
 _symmetry_equiv_pos_as_xyz
 1  'x, y, z'
loop_
 _atom_site_type_symbol
 _atom_site_label
 _atom_site_symmetry_multiplicity
 _atom_site_fract_x
 _atom_site_fract_y
 _atom_site_fract_z
 _atom_site_fract_occupancy
 Ca  Ca1  1  0.50000  0.50000  0.00000  1
 Ca  Ca2  1  0.32972  0.32972  0.65943  1
 Ca  Ca3  1  0.67028  0.67028  0.34057  1
 S  S1  1  0.00000  0.00000  0.00000  1
 S  S2  1  0.59051  0.09051  0.18101  1
 S  S3  1  0.09051  0.59051  0.18101  1
 S  S4  1  0.40949  0.90949  0.81899  1
 S  S5  1  0.90949  0.40949  0.81899  1
 S  S6  1  0.21472  0.21472  0.42944  1
 S  S7  1  0.78528  0.78528  0.57056  1
 Sn  Sn1  1  0.11230  0.11230  0.22460  1
 Sn  Sn2  1  0.88770  0.88770  0.77540  1
