CIF file written using JARVIS-Tools package.
data_ErCoSn
_symmetry_space_group_name_H-M  'Pnma'
_cell_length_a       4.55429
_cell_length_b       7.12317
_cell_length_c       7.30014
_cell_angle_alpha    90
_cell_angle_beta     90
_cell_angle_gamma    90

_symmetry_Int_Tables_number  62
_chemical_formula_structural  ErCoSn
_chemical_formula_sum  Er4Co4Sn4
_cell_volume  236.82378123369585
_cell_formula_units_Z  4
loop_
  _symmetry_equiv_pos_site_id
 _symmetry_equiv_pos_as_xyz
 1  'x, y, z'
loop_
 _atom_site_type_symbol
 _atom_site_label
 _atom_site_symmetry_multiplicity
 _atom_site_fract_x
 _atom_site_fract_y
 _atom_site_fract_z
 _atom_site_fract_occupancy
 Co  Co1  1  0.75000  0.83542  0.56109  1
 Co  Co2  1  0.25000  0.16458  0.43891  1
 Co  Co3  1  0.75000  0.33542  0.93891  1
 Co  Co4  1  0.25000  0.66458  0.06109  1
 Er  Er1  1  0.25000  0.47858  0.70214  1
 Er  Er2  1  0.25000  0.97858  0.79786  1
 Er  Er3  1  0.75000  0.02142  0.20214  1
 Er  Er4  1  0.75000  0.52142  0.29786  1
 Sn  Sn1  1  0.75000  0.70308  0.89494  1
 Sn  Sn2  1  0.25000  0.79692  0.39494  1
 Sn  Sn3  1  0.25000  0.29692  0.10506  1
 Sn  Sn4  1  0.75000  0.20308  0.60506  1
