CIF file written using JARVIS-Tools package.
data_Nd12Co6Sn
_symmetry_space_group_name_H-M  'Im-3'
_cell_length_a       8.62865
_cell_length_b       8.62866
_cell_length_c       8.62865
_cell_angle_alpha    109.471
_cell_angle_beta     109.471
_cell_angle_gamma    109.471

_symmetry_Int_Tables_number  204
_chemical_formula_structural  Nd12Co6Sn
_chemical_formula_sum  Nd2Co6Sn
_cell_volume  494.54682079418865
_cell_formula_units_Z  1
loop_
  _symmetry_equiv_pos_site_id
 _symmetry_equiv_pos_as_xyz
 1  'x, y, z'
loop_
 _atom_site_type_symbol
 _atom_site_label
 _atom_site_symmetry_multiplicity
 _atom_site_fract_x
 _atom_site_fract_y
 _atom_site_fract_z
 _atom_site_fract_occupancy
 Co  Co1  1  0.61165  0.11165  0.50000  1
 Co  Co2  1  0.88835  0.50000  0.38835  1
 Co  Co3  1  0.38835  0.88835  0.50000  1
 Co  Co4  1  0.50000  0.61165  0.11165  1
 Co  Co5  1  0.50000  0.38835  0.88835  1
 Co  Co6  1  0.11165  0.50000  0.61165  1
 Nd  Nd1  1  0.88790  0.69500  0.19291  1
 Nd  Nd2  1  0.30500  0.19291  0.49791  1
 Nd  Nd3  1  0.69500  0.80709  0.50209  1
 Nd  Nd4  1  0.19291  0.49791  0.30500  1
 Nd  Nd5  1  0.80709  0.50209  0.69500  1
 Nd  Nd6  1  0.50209  0.69500  0.80709  1
 Nd  Nd7  1  0.80709  0.11210  0.30500  1
 Nd  Nd8  1  0.19291  0.88790  0.69500  1
 Nd  Nd9  1  0.69500  0.19291  0.88790  1
 Nd  Nd10  1  0.49791  0.30500  0.19291  1
 Nd  Nd11  1  0.11210  0.30500  0.80709  1
 Nd  Nd12  1  0.30500  0.80709  0.11210  1
 Sn  Sn1  1  0.00000  0.00000  0.00000  1
