CIF file written using JARVIS-Tools package.
data_ZnFe2O4
_symmetry_space_group_name_H-M  'R3m'
_cell_length_a       5.91124
_cell_length_b       5.68068
_cell_length_c       5.68067
_cell_angle_alpha    60
_cell_angle_beta     61.2821
_cell_angle_gamma    61.282

_symmetry_Int_Tables_number  160
_chemical_formula_structural  ZnFe2O4
_chemical_formula_sum  Zn2Fe4O8
_cell_volume  137.44007199005347
_cell_formula_units_Z  2
loop_
  _symmetry_equiv_pos_site_id
 _symmetry_equiv_pos_as_xyz
 1  'x, y, z'
loop_
 _atom_site_type_symbol
 _atom_site_label
 _atom_site_symmetry_multiplicity
 _atom_site_fract_x
 _atom_site_fract_y
 _atom_site_fract_z
 _atom_site_fract_occupancy
 Fe  Fe1  1  0.25685  0.24772  0.24772  1
 Fe  Fe2  1  0.62684  0.13740  0.61788  1
 Fe  Fe3  1  0.62684  0.61788  0.13740  1
 Fe  Fe4  1  0.62684  0.61788  0.61788  1
 O  O1  1  0.39665  0.37541  0.37541  1
 O  O2  1  0.39665  0.37541  0.85253  1
 O  O3  1  0.39665  0.85253  0.37541  1
 O  O4  1  0.87024  0.37659  0.37659  1
 O  O5  1  0.41890  0.86037  0.86037  1
 O  O6  1  0.83675  0.40965  0.87680  1
 O  O7  1  0.83675  0.87680  0.40965  1
 O  O8  1  0.83675  0.87680  0.87680  1
 Zn  Zn1  1  0.01210  -0.00403  -0.00403  1
 Zn  Zn2  1  0.11120  0.62960  0.62960  1
