CIF file written using JARVIS-Tools package.
data_CaSbO3
_symmetry_space_group_name_H-M  'P2_1/m'
_cell_length_a       5.68397
_cell_length_b       8.08318
_cell_length_c       5.9201
_cell_angle_alpha    90
_cell_angle_beta     90.306
_cell_angle_gamma    90

_symmetry_Int_Tables_number  11
_chemical_formula_structural  CaSbO3
_chemical_formula_sum  Ca4Sb4O2
_cell_volume  271.992894656285
_cell_formula_units_Z  4
loop_
  _symmetry_equiv_pos_site_id
 _symmetry_equiv_pos_as_xyz
 1  'x, y, z'
loop_
 _atom_site_type_symbol
 _atom_site_label
 _atom_site_symmetry_multiplicity
 _atom_site_fract_x
 _atom_site_fract_y
 _atom_site_fract_z
 _atom_site_fract_occupancy
 Ca  Ca1  1  0.48638  0.25000  0.56022  1
 Ca  Ca2  1  0.51362  0.75000  0.43978  1
 Ca  Ca3  1  0.00972  0.25000  0.05437  1
 Ca  Ca4  1  0.99028  0.75000  0.94563  1
 O  O1  1  0.70873  0.55936  0.67588  1
 O  O2  1  0.88265  0.25000  0.44766  1
 O  O3  1  0.29127  0.05936  0.32412  1
 O  O4  1  0.17076  0.44136  0.78880  1
 O  O5  1  0.82924  0.94136  0.21120  1
 O  O6  1  0.17076  0.05864  0.78880  1
 O  O7  1  0.11735  0.75000  0.55234  1
 O  O8  1  0.62749  0.25000  0.93822  1
 O  O9  1  0.82924  0.55864  0.21120  1
 O  O10  1  0.29127  0.44064  0.32412  1
 O  O11  1  0.70873  0.94064  0.67588  1
 O  O12  1  0.37251  0.75000  0.06178  1
 Sb  Sb1  1  -0.00000  0.00000  0.50000  1
 Sb  Sb2  1  -0.00000  0.50000  0.50000  1
 Sb  Sb3  1  0.50000  0.00000  -0.00000  1
 Sb  Sb4  1  0.50000  0.50000  -0.00000  1
