CIF file written using JARVIS-Tools package.
data_YCu3Sb4O12
_symmetry_space_group_name_H-M  'Im-3'
_cell_length_a       6.84454
_cell_length_b       6.8445
_cell_length_c       6.84455
_cell_angle_alpha    109.471
_cell_angle_beta     109.473
_cell_angle_gamma    109.47

_symmetry_Int_Tables_number  204
_chemical_formula_structural  YCu3Sb4O12
_chemical_formula_sum  YCu3Sb4O2
_cell_volume  246.8345226546955
_cell_formula_units_Z  1
loop_
  _symmetry_equiv_pos_site_id
 _symmetry_equiv_pos_as_xyz
 1  'x, y, z'
loop_
 _atom_site_type_symbol
 _atom_site_label
 _atom_site_symmetry_multiplicity
 _atom_site_fract_x
 _atom_site_fract_y
 _atom_site_fract_z
 _atom_site_fract_occupancy
 Cu  Cu1  1  0.50000  1.00000  0.50000  1
 Cu  Cu2  1  0.50000  0.50000  1.00000  1
 Cu  Cu3  1  0.00000  0.50000  0.50000  1
 O  O1  1  0.16718  0.29353  0.46071  1
 O  O2  1  0.83282  0.29353  0.12635  1
 O  O3  1  0.87362  0.16718  0.70643  1
 O  O4  1  0.83282  0.70647  0.53929  1
 O  O5  1  0.29355  0.46072  0.16718  1
 O  O6  1  0.16718  0.70647  0.87365  1
 O  O7  1  0.12637  0.83281  0.29357  1
 O  O8  1  0.70646  0.87363  0.16718  1
 O  O9  1  0.29354  0.12637  0.83282  1
 O  O10  1  0.46076  0.16720  0.29358  1
 O  O11  1  0.70646  0.53928  0.83282  1
 O  O12  1  0.53924  0.83280  0.70643  1
 Sb  Sb1  1  0.50000  0.50000  0.50000  1
 Sb  Sb2  1  0.00000  0.50000  -0.00000  1
 Sb  Sb3  1  1.00000  0.00000  0.50000  1
 Sb  Sb4  1  0.50000  0.00000  0.00000  1
 Y  Y1  1  1.00000  1.00000  0.99999  1
