CIF file written using JARVIS-Tools package.
data_Tb4CdCo
_symmetry_space_group_name_H-M  'F-43m'
_cell_length_a       9.4504
_cell_length_b       9.4504
_cell_length_c       9.45041
_cell_angle_alpha    60
_cell_angle_beta     60
_cell_angle_gamma    60

_symmetry_Int_Tables_number  216
_chemical_formula_structural  Tb4CdCo
_chemical_formula_sum  Tb6Cd4Co4
_cell_volume  596.8105582675502
_cell_formula_units_Z  4
loop_
  _symmetry_equiv_pos_site_id
 _symmetry_equiv_pos_as_xyz
 1  'x, y, z'
loop_
 _atom_site_type_symbol
 _atom_site_label
 _atom_site_symmetry_multiplicity
 _atom_site_fract_x
 _atom_site_fract_y
 _atom_site_fract_z
 _atom_site_fract_occupancy
 Cd  Cd1  1  0.25716  0.58095  0.58095  1
 Cd  Cd2  1  0.58095  0.58095  0.25716  1
 Cd  Cd3  1  0.58095  0.58095  0.58095  1
 Cd  Cd4  1  0.58095  0.25716  0.58095  1
 Co  Co1  1  0.14093  0.57720  0.14093  1
 Co  Co2  1  0.14093  0.14093  0.14093  1
 Co  Co3  1  0.57720  0.14093  0.14093  1
 Co  Co4  1  0.14093  0.14093  0.57720  1
 Tb  Tb1  1  0.95994  0.34669  0.34669  1
 Tb  Tb2  1  0.34669  0.34669  0.34669  1
 Tb  Tb3  1  0.56216  0.56216  0.93784  1
 Tb  Tb4  1  0.81147  0.18853  0.81147  1
 Tb  Tb5  1  0.18853  0.81147  0.18853  1
 Tb  Tb6  1  0.81147  0.18853  0.18853  1
 Tb  Tb7  1  0.18853  0.18853  0.81147  1
 Tb  Tb8  1  0.56216  0.93784  0.56216  1
 Tb  Tb9  1  0.34669  0.34669  0.95994  1
 Tb  Tb10  1  0.93784  0.93784  0.56216  1
 Tb  Tb11  1  0.56216  0.93784  0.93784  1
 Tb  Tb12  1  0.34669  0.95994  0.34669  1
 Tb  Tb13  1  0.93784  0.56216  0.93784  1
 Tb  Tb14  1  0.18853  0.81147  0.81147  1
 Tb  Tb15  1  0.93784  0.56216  0.56216  1
 Tb  Tb16  1  0.81147  0.81147  0.18853  1
