CIF file written using JARVIS-Tools package.
data_Na3UO4
_symmetry_space_group_name_H-M  'Cmmm'
_cell_length_a       6.73096
_cell_length_b       6.73096
_cell_length_c       6.96608
_cell_angle_alpha    58.8376
_cell_angle_beta     58.8376
_cell_angle_gamma    60.2725

_symmetry_Int_Tables_number  65
_chemical_formula_structural  Na3UO4
_chemical_formula_sum  Na6U2O8
_cell_volume  219.595051781006
_cell_formula_units_Z  2
loop_
  _symmetry_equiv_pos_site_id
 _symmetry_equiv_pos_as_xyz
 1  'x, y, z'
loop_
 _atom_site_type_symbol
 _atom_site_label
 _atom_site_symmetry_multiplicity
 _atom_site_fract_x
 _atom_site_fract_y
 _atom_site_fract_z
 _atom_site_fract_occupancy
 Na  Na1  1  0.00000  0.50000  -0.00000  1
 Na  Na2  1  0.50000  -0.00000  -0.00000  1
 Na  Na3  1  0.50000  0.50000  -0.00000  1
 Na  Na4  1  0.50000  -0.00000  0.50000  1
 Na  Na5  1  0.50000  0.50000  0.50000  1
 Na  Na6  1  0.00000  0.50000  0.50000  1
 O  O1  1  0.21838  0.21838  0.28160  1
 O  O2  1  0.21616  0.78381  0.25002  1
 O  O3  1  0.21838  0.21838  0.78165  1
 O  O4  1  0.21619  0.78384  0.74998  1
 O  O5  1  0.78381  0.21616  0.25002  1
 O  O6  1  0.78162  0.78162  0.21835  1
 O  O7  1  0.78384  0.21619  0.74998  1
 O  O8  1  0.78162  0.78162  0.71840  1
 U  U1  1  0.00000  0.00000  0.00000  1
 U  U2  1  -0.00000  -0.00000  0.50000  1
