CIF file written using JARVIS-Tools package.
data_HfZrO4
_symmetry_space_group_name_H-M  'I4_1/a'
_cell_length_a       6.34331
_cell_length_b       6.34331
_cell_length_c       6.34331
_cell_angle_alpha    132.654
_cell_angle_beta     132.654
_cell_angle_gamma    69.1986

_symmetry_Int_Tables_number  88
_chemical_formula_structural  HfZrO4
_chemical_formula_sum  Hf2Zr2O8
_cell_volume  135.486569434498
_cell_formula_units_Z  2
loop_
  _symmetry_equiv_pos_site_id
 _symmetry_equiv_pos_as_xyz
 1  'x, y, z'
loop_
 _atom_site_type_symbol
 _atom_site_label
 _atom_site_symmetry_multiplicity
 _atom_site_fract_x
 _atom_site_fract_y
 _atom_site_fract_z
 _atom_site_fract_occupancy
 Hf  Hf1  1  0.00000  0.00000  0.00000  1
 Hf  Hf2  1  0.75000  0.25000  0.50000  1
 O  O1  1  0.65150  0.14540  0.99530  1
 O  O2  1  0.59990  0.59380  0.49530  1
 O  O3  1  0.85460  0.84990  0.50610  1
 O  O4  1  0.40620  0.90150  0.00610  1
 O  O5  1  0.34380  0.34850  0.49390  1
 O  O6  1  0.89540  0.40010  0.99390  1
 O  O7  1  0.09850  0.10460  0.50470  1
 O  O8  1  0.15010  0.65620  0.00470  1
 Zr  Zr1  1  0.50000  0.50000  0.00000  1
 Zr  Zr2  1  0.25000  0.75000  0.50000  1
