CIF file written using JARVIS-Tools package.
data_Nd12Ni6Sn
_symmetry_space_group_name_H-M  'Im-3'
_cell_length_a       8.67243
_cell_length_b       8.67244
_cell_length_c       8.67244
_cell_angle_alpha    109.471
_cell_angle_beta     109.471
_cell_angle_gamma    109.471

_symmetry_Int_Tables_number  204
_chemical_formula_structural  Nd12Ni6Sn
_chemical_formula_sum  Nd2Ni6Sn
_cell_volume  502.1133909679206
_cell_formula_units_Z  1
loop_
  _symmetry_equiv_pos_site_id
 _symmetry_equiv_pos_as_xyz
 1  'x, y, z'
loop_
 _atom_site_type_symbol
 _atom_site_label
 _atom_site_symmetry_multiplicity
 _atom_site_fract_x
 _atom_site_fract_y
 _atom_site_fract_z
 _atom_site_fract_occupancy
 Nd  Nd1  1  0.88023  0.69442  0.18582  1
 Nd  Nd2  1  0.30558  0.18582  0.49140  1
 Nd  Nd3  1  0.69442  0.81418  0.50860  1
 Nd  Nd4  1  0.30558  0.81418  0.11977  1
 Nd  Nd5  1  0.81418  0.50860  0.69442  1
 Nd  Nd6  1  0.50860  0.69442  0.81418  1
 Nd  Nd7  1  0.18582  0.49140  0.30558  1
 Nd  Nd8  1  0.18582  0.88023  0.69442  1
 Nd  Nd9  1  0.69442  0.18582  0.88023  1
 Nd  Nd10  1  0.49140  0.30558  0.18582  1
 Nd  Nd11  1  0.11977  0.30558  0.81418  1
 Nd  Nd12  1  0.81418  0.11977  0.30558  1
 Ni  Ni1  1  0.12269  0.50000  0.62269  1
 Ni  Ni2  1  0.50000  0.37731  0.87731  1
 Ni  Ni3  1  0.50000  0.62269  0.12269  1
 Ni  Ni4  1  0.37731  0.87731  0.50000  1
 Ni  Ni5  1  0.87731  0.50000  0.37731  1
 Ni  Ni6  1  0.62269  0.12269  0.50000  1
 Sn  Sn1  1  0.00000  0.00000  0.00000  1
