CIF file written using JARVIS-Tools package.
data_SrCrO4
_symmetry_space_group_name_H-M  'P2_1/c'
_cell_length_a       6.7756
_cell_length_b       7.42583
_cell_length_c       8.64398
_cell_angle_alpha    90
_cell_angle_beta     126.766
_cell_angle_gamma    90

_symmetry_Int_Tables_number  14
_chemical_formula_structural  SrCrO4
_chemical_formula_sum  Sr4Cr4O6
_cell_volume  348.4071411143739
_cell_formula_units_Z  4
loop_
  _symmetry_equiv_pos_site_id
 _symmetry_equiv_pos_as_xyz
 1  'x, y, z'
loop_
 _atom_site_type_symbol
 _atom_site_label
 _atom_site_symmetry_multiplicity
 _atom_site_fract_x
 _atom_site_fract_y
 _atom_site_fract_z
 _atom_site_fract_occupancy
 Cr  Cr1  1  0.81448  0.33491  0.19829  1
 Cr  Cr2  1  0.18552  0.83491  0.30171  1
 Cr  Cr3  1  0.18552  0.66509  0.80171  1
 Cr  Cr4  1  0.81448  0.16509  0.69829  1
 O  O1  1  0.16857  0.60126  0.97679  1
 O  O2  1  0.09871  0.28012  0.38136  1
 O  O3  1  0.90129  0.78012  0.11864  1
 O  O4  1  0.90129  0.71988  0.61864  1
 O  O5  1  0.37791  0.84010  0.87997  1
 O  O6  1  0.70092  0.49618  0.25800  1
 O  O7  1  0.29908  0.99618  0.24200  1
 O  O8  1  0.09871  0.21988  0.88136  1
 O  O9  1  0.70092  0.00382  0.75800  1
 O  O10  1  0.62209  0.34010  0.62003  1
 O  O11  1  0.16857  0.89874  0.47679  1
 O  O12  1  0.29908  0.50382  0.74200  1
 O  O13  1  0.83143  0.10126  0.52321  1
 O  O14  1  0.62209  0.15990  0.12003  1
 O  O15  1  0.37791  0.65990  0.37997  1
 O  O16  1  0.83143  0.39874  0.02321  1
 Sr  Sr1  1  0.33171  0.15774  0.72871  1
 Sr  Sr2  1  0.66829  0.65774  0.77129  1
 Sr  Sr3  1  0.66829  0.84226  0.27129  1
 Sr  Sr4  1  0.33171  0.34226  0.22871  1
