CIF file written using JARVIS-Tools package.
data_Er4Ga16Co3
_symmetry_space_group_name_H-M  'P4/mmm'
_cell_length_a       5.98872
_cell_length_b       5.98872
_cell_length_c       11.0437
_cell_angle_alpha    90
_cell_angle_beta     90
_cell_angle_gamma    90

_symmetry_Int_Tables_number  123
_chemical_formula_structural  Er4Ga16Co3
_chemical_formula_sum  Er4Ga6Co3
_cell_volume  396.08051202804495
_cell_formula_units_Z  1
loop_
  _symmetry_equiv_pos_site_id
 _symmetry_equiv_pos_as_xyz
 1  'x, y, z'
loop_
 _atom_site_type_symbol
 _atom_site_label
 _atom_site_symmetry_multiplicity
 _atom_site_fract_x
 _atom_site_fract_y
 _atom_site_fract_z
 _atom_site_fract_occupancy
 Co  Co1  1  0.00000  0.00000  0.00000  1
 Co  Co2  1  0.00000  0.50000  0.50000  1
 Co  Co3  1  0.50000  0.00000  0.50000  1
 Er  Er1  1  0.00000  0.50000  0.19527  1
 Er  Er2  1  0.00000  0.50000  0.80473  1
 Er  Er3  1  0.50000  0.00000  0.80473  1
 Er  Er4  1  0.50000  0.00000  0.19527  1
 Ga  Ga1  1  0.75027  0.24973  0.38382  1
 Ga  Ga2  1  0.00000  0.00000  0.21806  1
 Ga  Ga3  1  0.00000  0.00000  0.78194  1
 Ga  Ga4  1  0.50000  0.50000  0.19535  1
 Ga  Ga5  1  0.50000  0.50000  0.80465  1
 Ga  Ga6  1  0.28044  0.28044  0.00000  1
 Ga  Ga7  1  0.71956  0.71956  0.00000  1
 Ga  Ga8  1  0.28044  0.71956  0.00000  1
 Ga  Ga9  1  0.75027  0.75027  0.38382  1
 Ga  Ga10  1  0.24973  0.75027  0.61618  1
 Ga  Ga11  1  0.75027  0.24973  0.61618  1
 Ga  Ga12  1  0.75027  0.75027  0.61618  1
 Ga  Ga13  1  0.24973  0.24973  0.61618  1
 Ga  Ga14  1  0.24973  0.75027  0.38382  1
 Ga  Ga15  1  0.71956  0.28044  0.00000  1
 Ga  Ga16  1  0.24973  0.24973  0.38382  1
