CIF file written using JARVIS-Tools package.
data_Ce3Bi4Pd3
_symmetry_space_group_name_H-M  'I-43d'
_cell_length_a       8.69311
_cell_length_b       8.6931
_cell_length_c       8.6931
_cell_angle_alpha    109.471
_cell_angle_beta     109.471
_cell_angle_gamma    109.471

_symmetry_Int_Tables_number  220
_chemical_formula_structural  Ce3Bi4Pd3
_chemical_formula_sum  Ce6Bi8Pd6
_cell_volume  505.7112949594441
_cell_formula_units_Z  2
loop_
  _symmetry_equiv_pos_site_id
 _symmetry_equiv_pos_as_xyz
 1  'x, y, z'
loop_
 _atom_site_type_symbol
 _atom_site_label
 _atom_site_symmetry_multiplicity
 _atom_site_fract_x
 _atom_site_fract_y
 _atom_site_fract_z
 _atom_site_fract_occupancy
 Bi  Bi1  1  0.17514  0.50000  -0.00000  1
 Bi  Bi2  1  0.82486  0.82486  0.82486  1
 Bi  Bi3  1  0.50000  0.00000  0.17514  1
 Bi  Bi4  1  0.00000  0.67514  0.50000  1
 Bi  Bi5  1  0.32486  0.32486  0.32486  1
 Bi  Bi6  1  0.67514  0.50000  -0.00000  1
 Bi  Bi7  1  0.00000  0.17514  0.50000  1
 Bi  Bi8  1  0.50000  0.00000  0.67514  1
 Ce  Ce1  1  0.12500  0.87500  0.25000  1
 Ce  Ce2  1  0.75000  0.37500  0.62500  1
 Ce  Ce3  1  0.37500  0.62500  0.75000  1
 Ce  Ce4  1  0.87500  0.25000  0.12500  1
 Ce  Ce5  1  0.62500  0.75000  0.37500  1
 Ce  Ce6  1  0.25000  0.12500  0.87500  1
 Pd  Pd1  1  0.37500  0.25000  0.62500  1
 Pd  Pd2  1  0.75000  0.87500  0.12500  1
 Pd  Pd3  1  0.12500  0.75000  0.87500  1
 Pd  Pd4  1  0.62500  0.37500  0.25000  1
 Pd  Pd5  1  0.25000  0.62500  0.37500  1
 Pd  Pd6  1  0.87500  0.12500  0.75000  1
