CIF file written using JARVIS-Tools package.
data_MnGaH4O2F5
_symmetry_space_group_name_H-M  'Imma'
_cell_length_a       6.53154
_cell_length_b       7.39766
_cell_length_c       7.39766
_cell_angle_alpha    61.9422
_cell_angle_beta     63.8029
_cell_angle_gamma    63.8029

_symmetry_Int_Tables_number  74
_chemical_formula_structural  MnGaH4O2F5
_chemical_formula_sum  Mn2Ga2H8O4F0
_cell_volume  270.41081474363637
_cell_formula_units_Z  2
loop_
  _symmetry_equiv_pos_site_id
 _symmetry_equiv_pos_as_xyz
 1  'x, y, z'
loop_
 _atom_site_type_symbol
 _atom_site_label
 _atom_site_symmetry_multiplicity
 _atom_site_fract_x
 _atom_site_fract_y
 _atom_site_fract_z
 _atom_site_fract_occupancy
 F  F1  1  0.56684  0.25000  0.25000  1
 F  F2  1  0.43316  0.75000  0.75000  1
 F  F3  1  0.57762  0.65888  0.08980  1
 F  F4  1  0.17370  0.15888  0.58980  1
 F  F5  1  0.42238  0.34112  0.91020  1
 F  F6  1  0.82630  0.41020  0.84112  1
 F  F7  1  0.82630  0.84112  0.41020  1
 F  F8  1  0.17370  0.58980  0.15888  1
 F  F9  1  0.42238  0.91020  0.34112  1
 F  F10  1  0.57762  0.08980  0.65888  1
 Ga  Ga1  1  0.50000  0.50000  -0.00000  1
 Ga  Ga2  1  0.50000  -0.00000  0.50000  1
 H  H1  1  0.97729  0.80240  0.01087  1
 H  H2  1  0.02271  0.19760  0.98913  1
 H  H3  1  0.70944  0.30240  0.51087  1
 H  H4  1  0.29056  0.69760  0.48913  1
 H  H5  1  0.97729  0.01087  0.80240  1
 H  H6  1  0.29056  0.48913  0.69760  1
 H  H7  1  0.70944  0.51087  0.30240  1
 H  H8  1  0.02271  0.98913  0.19760  1
 Mn  Mn1  1  -0.00000  0.50000  0.50000  1
 Mn  Mn2  1  0.50000  0.00000  -0.00000  1
 O  O1  1  0.12697  0.07120  0.07120  1
 O  O2  1  0.23063  0.57120  0.57120  1
 O  O3  1  0.76937  0.42880  0.42880  1
 O  O4  1  0.87303  0.92880  0.92880  1
