CIF file written using JARVIS-Tools package.
data_MnSeO4
_symmetry_space_group_name_H-M  'Pnma'
_cell_length_a       5.0084
_cell_length_b       6.90389
_cell_length_c       9.36667
_cell_angle_alpha    90
_cell_angle_beta     90
_cell_angle_gamma    90

_symmetry_Int_Tables_number  62
_chemical_formula_structural  MnSeO4
_chemical_formula_sum  Mn4Se4O6
_cell_volume  323.8753544653608
_cell_formula_units_Z  4
loop_
  _symmetry_equiv_pos_site_id
 _symmetry_equiv_pos_as_xyz
 1  'x, y, z'
loop_
 _atom_site_type_symbol
 _atom_site_label
 _atom_site_symmetry_multiplicity
 _atom_site_fract_x
 _atom_site_fract_y
 _atom_site_fract_z
 _atom_site_fract_occupancy
 Mn  Mn1  1  0.00000  0.00000  0.00000  1
 Mn  Mn2  1  0.50000  0.00000  0.50000  1
 Mn  Mn3  1  0.00000  0.50000  0.00000  1
 Mn  Mn4  1  0.50000  0.50000  0.50000  1
 O  O1  1  0.16761  0.45214  0.37547  1
 O  O2  1  0.66761  0.54786  0.12453  1
 O  O3  1  0.83239  0.95214  0.62453  1
 O  O4  1  0.44376  0.25000  0.63682  1
 O  O5  1  0.83239  0.54786  0.62453  1
 O  O6  1  0.33239  0.45214  0.87547  1
 O  O7  1  0.33239  0.04786  0.87547  1
 O  O8  1  0.66761  0.95214  0.12453  1
 O  O9  1  0.19976  0.75000  0.12326  1
 O  O10  1  0.80024  0.25000  0.87674  1
 O  O11  1  0.16761  0.04786  0.37547  1
 O  O12  1  0.30024  0.75000  0.62326  1
 O  O13  1  0.94376  0.75000  0.86318  1
 O  O14  1  0.05624  0.25000  0.13682  1
 O  O15  1  0.69976  0.25000  0.37674  1
 O  O16  1  0.55624  0.75000  0.36318  1
 Se  Se1  1  0.97971  0.75000  0.68135  1
 Se  Se2  1  0.47971  0.25000  0.81865  1
 Se  Se3  1  0.02029  0.25000  0.31865  1
 Se  Se4  1  0.52029  0.75000  0.18135  1
