CIF file written using JARVIS-Tools package.
data_LiInMo2O8
_symmetry_space_group_name_H-M  'C2/c'
_cell_length_a       5.02959
_cell_length_b       7.52385
_cell_length_c       7.52386
_cell_angle_alpha    100.949
_cell_angle_beta     90.9443
_cell_angle_gamma    90.9442

_symmetry_Int_Tables_number  15
_chemical_formula_structural  LiInMo2O8
_chemical_formula_sum  Li2In2Mo4O6
_cell_volume  279.4399176032916
_cell_formula_units_Z  2
loop_
  _symmetry_equiv_pos_site_id
 _symmetry_equiv_pos_as_xyz
 1  'x, y, z'
loop_
 _atom_site_type_symbol
 _atom_site_label
 _atom_site_symmetry_multiplicity
 _atom_site_fract_x
 _atom_site_fract_y
 _atom_site_fract_z
 _atom_site_fract_occupancy
 In  In1  1  0.25000  0.90753  0.09247  1
 In  In2  1  0.75000  0.09247  0.90753  1
 Li  Li1  1  0.75000  0.58471  0.41529  1
 Li  Li2  1  0.25000  0.41529  0.58471  1
 Mo  Mo1  1  0.24956  0.88778  0.57273  1
 Mo  Mo2  1  0.25044  0.42727  0.11222  1
 Mo  Mo3  1  0.75044  0.11222  0.42727  1
 Mo  Mo4  1  0.74956  0.57273  0.88778  1
 O  O1  1  0.45681  0.16889  0.55603  1
 O  O2  1  0.59062  0.56413  0.68194  1
 O  O3  1  0.90938  0.31806  0.43587  1
 O  O4  1  0.38763  0.94044  0.81130  1
 O  O5  1  0.11237  0.18870  0.05956  1
 O  O6  1  0.61237  0.05956  0.18870  1
 O  O7  1  0.40938  0.43587  0.31806  1
 O  O8  1  0.56742  0.34821  0.94779  1
 O  O9  1  0.43258  0.65179  0.05221  1
 O  O10  1  0.93258  0.05221  0.65179  1
 O  O11  1  0.09062  0.68194  0.56413  1
 O  O12  1  0.54319  0.83111  0.44397  1
 O  O13  1  0.95681  0.55603  0.16889  1
 O  O14  1  0.04319  0.44397  0.83111  1
 O  O15  1  0.06742  0.94779  0.34821  1
 O  O16  1  0.88763  0.81130  0.94044  1
