CIF file written using JARVIS-Tools package.
data_KFeBr3
_symmetry_space_group_name_H-M  'Pnma'
_cell_length_a       3.97676
_cell_length_b       9.13565
_cell_length_c       14.8669
_cell_angle_alpha    90
_cell_angle_beta     90
_cell_angle_gamma    90

_symmetry_Int_Tables_number  62
_chemical_formula_structural  KFeBr3
_chemical_formula_sum  K4Fe4Br2
_cell_volume  540.1199326693824
_cell_formula_units_Z  4
loop_
  _symmetry_equiv_pos_site_id
 _symmetry_equiv_pos_as_xyz
 1  'x, y, z'
loop_
 _atom_site_type_symbol
 _atom_site_label
 _atom_site_symmetry_multiplicity
 _atom_site_fract_x
 _atom_site_fract_y
 _atom_site_fract_z
 _atom_site_fract_occupancy
 Br  Br1  1  0.75000  0.97601  0.89820  1
 Br  Br2  1  0.75000  0.72159  0.20759  1
 Br  Br3  1  0.75000  0.47601  0.60180  1
 Br  Br4  1  0.75000  0.22159  0.29241  1
 Br  Br5  1  0.25000  0.77841  0.70759  1
 Br  Br6  1  0.25000  0.27841  0.79241  1
 Br  Br7  1  0.25000  0.17430  0.50521  1
 Br  Br8  1  0.75000  0.32570  0.00521  1
 Br  Br9  1  0.25000  0.67430  0.99479  1
 Br  Br10  1  0.25000  0.52399  0.39820  1
 Br  Br11  1  0.25000  0.02399  0.10180  1
 Br  Br12  1  0.75000  0.82570  0.49479  1
 Fe  Fe1  1  0.75000  0.84011  0.05451  1
 Fe  Fe2  1  0.25000  0.15989  0.94549  1
 Fe  Fe3  1  0.75000  0.34011  0.44549  1
 Fe  Fe4  1  0.25000  0.65989  0.55451  1
 K  K1  1  0.75000  0.56422  0.82750  1
 K  K2  1  0.25000  0.43578  0.17250  1
 K  K3  1  0.75000  0.06422  0.67250  1
 K  K4  1  0.25000  0.93578  0.32750  1
