CIF file written using JARVIS-Tools package.
data_Hf5Ge3
_symmetry_space_group_name_H-M  'P6_3/mcm'
_cell_length_a       7.97608
_cell_length_b       7.97608
_cell_length_c       5.54025
_cell_angle_alpha    90
_cell_angle_beta     90
_cell_angle_gamma    120

_symmetry_Int_Tables_number  193
_chemical_formula_structural  Hf5Ge3
_chemical_formula_sum  Hf0Ge6
_cell_volume  305.2388430118091
_cell_formula_units_Z  2
loop_
  _symmetry_equiv_pos_site_id
 _symmetry_equiv_pos_as_xyz
 1  'x, y, z'
loop_
 _atom_site_type_symbol
 _atom_site_label
 _atom_site_symmetry_multiplicity
 _atom_site_fract_x
 _atom_site_fract_y
 _atom_site_fract_z
 _atom_site_fract_occupancy
 Ge  Ge1  1  0.61131  -0.00000  0.75000  1
 Ge  Ge2  1  0.00000  0.38869  0.25000  1
 Ge  Ge3  1  0.61131  0.61131  0.25000  1
 Ge  Ge4  1  0.38869  0.38869  0.75000  1
 Ge  Ge5  1  -0.00000  0.61131  0.75000  1
 Ge  Ge6  1  0.38869  0.00000  0.25000  1
 Hf  Hf1  1  0.66667  0.33333  0.00000  1
 Hf  Hf2  1  0.33333  0.66667  0.50000  1
 Hf  Hf3  1  0.33333  0.66667  0.00000  1
 Hf  Hf4  1  0.66667  0.33333  0.50000  1
 Hf  Hf5  1  0.25141  0.00000  0.75000  1
 Hf  Hf6  1  -0.00000  0.74859  0.25000  1
 Hf  Hf7  1  0.25141  0.25141  0.25000  1
 Hf  Hf8  1  0.74859  0.74859  0.75000  1
 Hf  Hf9  1  0.00000  0.25141  0.75000  1
 Hf  Hf10  1  0.74859  -0.00000  0.25000  1
