CIF file written using JARVIS-Tools package.
data_Ag3SnP7
_symmetry_space_group_name_H-M  'P2_1/m'
_cell_length_a       6.4331
_cell_length_b       11.1982
_cell_length_c       6.59179
_cell_angle_alpha    90
_cell_angle_beta     108.298
_cell_angle_gamma    90

_symmetry_Int_Tables_number  11
_chemical_formula_structural  Ag3SnP7
_chemical_formula_sum  Ag6Sn2P4
_cell_volume  450.85672120619404
_cell_formula_units_Z  2
loop_
  _symmetry_equiv_pos_site_id
 _symmetry_equiv_pos_as_xyz
 1  'x, y, z'
loop_
 _atom_site_type_symbol
 _atom_site_label
 _atom_site_symmetry_multiplicity
 _atom_site_fract_x
 _atom_site_fract_y
 _atom_site_fract_z
 _atom_site_fract_occupancy
 Ag  Ag1  1  0.92761  0.75000  0.67465  1
 Ag  Ag2  1  0.07239  0.25000  0.32535  1
 Ag  Ag3  1  0.30977  0.89769  0.68315  1
 Ag  Ag4  1  0.69023  0.39769  0.31685  1
 Ag  Ag5  1  0.69023  0.10231  0.31685  1
 Ag  Ag6  1  0.30977  0.60231  0.68315  1
 P  P1  1  0.83342  0.91975  0.15959  1
 P  P2  1  0.16658  0.41975  0.84041  1
 P  P3  1  0.73066  0.75000  0.27656  1
 P  P4  1  0.83342  0.58025  0.15959  1
 P  P5  1  0.72139  0.91003  0.80438  1
 P  P6  1  0.16658  0.08025  0.84041  1
 P  P7  1  0.27861  0.08997  0.19562  1
 P  P8  1  0.80311  0.40978  0.71589  1
 P  P9  1  0.19689  0.90978  0.28411  1
 P  P10  1  0.27861  0.41003  0.19562  1
 P  P11  1  0.80311  0.09022  0.71589  1
 P  P12  1  0.19689  0.59022  0.28411  1
 P  P13  1  0.72139  0.58997  0.80438  1
 P  P14  1  0.26934  0.25000  0.72344  1
 Sn  Sn1  1  0.69187  0.25000  0.95970  1
 Sn  Sn2  1  0.30813  0.75000  0.04030  1
