CIF file written using JARVIS-Tools package.
data_YSbO3
_symmetry_space_group_name_H-M  'P6_3cm'
_cell_length_a       6.43945
_cell_length_b       6.43945
_cell_length_c       13.2308
_cell_angle_alpha    90
_cell_angle_beta     90
_cell_angle_gamma    120

_symmetry_Int_Tables_number  185
_chemical_formula_structural  YSbO3
_chemical_formula_sum  Y6Sb6O8
_cell_volume  475.13329263157044
_cell_formula_units_Z  6
loop_
  _symmetry_equiv_pos_site_id
 _symmetry_equiv_pos_as_xyz
 1  'x, y, z'
loop_
 _atom_site_type_symbol
 _atom_site_label
 _atom_site_symmetry_multiplicity
 _atom_site_fract_x
 _atom_site_fract_y
 _atom_site_fract_z
 _atom_site_fract_occupancy
 O  O1  1  0.00000  0.29243  0.33702  1
 O  O2  1  0.66667  0.33333  0.94909  1
 O  O3  1  0.33333  0.66667  0.44909  1
 O  O4  1  0.70757  -0.00000  0.83702  1
 O  O5  1  0.33333  0.66667  0.94909  1
 O  O6  1  0.00000  0.00000  0.02350  1
 O  O7  1  0.00000  0.00000  0.52350  1
 O  O8  1  0.35562  0.35562  0.19166  1
 O  O9  1  0.66667  0.33333  0.44909  1
 O  O10  1  0.00000  0.35562  0.69166  1
 O  O11  1  0.64438  -0.00000  0.19166  1
 O  O12  1  0.64438  0.64438  0.69166  1
 O  O13  1  0.29243  0.29243  0.83702  1
 O  O14  1  0.29243  0.00000  0.33702  1
 O  O15  1  0.70757  0.70757  0.33702  1
 O  O16  1  -0.00000  0.70757  0.83702  1
 O  O17  1  -0.00000  0.64438  0.19166  1
 O  O18  1  0.35562  0.00000  0.69166  1
 Sb  Sb1  1  -0.00000  0.66421  0.98730  1
 Sb  Sb2  1  0.66421  0.66421  0.48730  1
 Sb  Sb3  1  0.66421  -0.00000  0.98730  1
 Sb  Sb4  1  0.00000  0.33579  0.48730  1
 Sb  Sb5  1  0.33579  0.00000  0.48730  1
 Sb  Sb6  1  0.33579  0.33579  0.98730  1
 Y  Y1  1  0.00000  0.00000  0.73144  1
 Y  Y2  1  0.00000  0.00000  0.23144  1
 Y  Y3  1  0.33333  0.66667  0.76197  1
 Y  Y4  1  0.66667  0.33333  0.26197  1
 Y  Y5  1  0.33333  0.66667  0.26197  1
 Y  Y6  1  0.66667  0.33333  0.76197  1
