CIF file written using JARVIS-Tools package.
data_Tm2Ni12P7
_symmetry_space_group_name_H-M  'P-6'
_cell_length_a       9.06349
_cell_length_b       9.06349
_cell_length_c       3.68019
_cell_angle_alpha    90
_cell_angle_beta     90
_cell_angle_gamma    120

_symmetry_Int_Tables_number  174
_chemical_formula_structural  Tm2Ni12P7
_chemical_formula_sum  Tm2Ni2P7
_cell_volume  261.81308065229405
_cell_formula_units_Z  1
loop_
  _symmetry_equiv_pos_site_id
 _symmetry_equiv_pos_as_xyz
 1  'x, y, z'
loop_
 _atom_site_type_symbol
 _atom_site_label
 _atom_site_symmetry_multiplicity
 _atom_site_fract_x
 _atom_site_fract_y
 _atom_site_fract_z
 _atom_site_fract_occupancy
 Ni  Ni1  1  0.93740  0.56491  0.00000  1
 Ni  Ni2  1  0.90640  0.78314  0.50000  1
 Ni  Ni3  1  0.87674  0.09360  0.50000  1
 Ni  Ni4  1  0.21686  0.12326  0.50000  1
 Ni  Ni5  1  0.05020  0.43262  0.50000  1
 Ni  Ni6  1  0.38242  0.94980  0.50000  1
 Ni  Ni7  1  0.56738  0.61758  0.50000  1
 Ni  Ni8  1  0.12187  0.27539  0.00000  1
 Ni  Ni9  1  0.15352  0.87813  0.00000  1
 Ni  Ni10  1  0.62751  0.06260  0.00000  1
 Ni  Ni11  1  0.43509  0.37249  0.00000  1
 Ni  Ni12  1  0.72461  0.84648  0.00000  1
 P  P1  1  0.70512  0.59080  0.00000  1
 P  P2  1  0.88567  0.29488  0.00000  1
 P  P3  1  0.40920  0.11433  0.00000  1
 P  P4  1  0.59327  0.88723  0.50000  1
 P  P5  1  0.29395  0.40673  0.50000  1
 P  P6  1  0.11277  0.70605  0.50000  1
 P  P7  1  0.00000  0.00000  0.00000  1
 Tm  Tm1  1  0.33333  0.66667  0.00000  1
 Tm  Tm2  1  0.66667  0.33333  0.50000  1
