CIF file written using JARVIS-Tools package.
data_Th2AuF11
_symmetry_space_group_name_H-M  'I4/mcm'
_cell_length_a       6.35274
_cell_length_b       8.66292
_cell_length_c       8.66292
_cell_angle_alpha    82.2736
_cell_angle_beta     68.49
_cell_angle_gamma    68.49

_symmetry_Int_Tables_number  140
_chemical_formula_structural  Th2AuF11
_chemical_formula_sum  Th4Au2F22
_cell_volume  412.65440677328303
_cell_formula_units_Z  2
loop_
  _symmetry_equiv_pos_site_id
 _symmetry_equiv_pos_as_xyz
 1  'x, y, z'
loop_
 _atom_site_type_symbol
 _atom_site_label
 _atom_site_symmetry_multiplicity
 _atom_site_fract_x
 _atom_site_fract_y
 _atom_site_fract_z
 _atom_site_fract_occupancy
 Au  Au1  1  0.00000  0.00000  0.00000  1
 Au  Au2  1  0.50000  0.00000  -0.00000  1
 F  F1  1  0.25000  0.69358  0.30642  1
 F  F2  1  0.60854  0.02293  0.76000  1
 F  F3  1  0.63146  0.76000  0.97707  1
 F  F4  1  0.36854  0.24000  0.02293  1
 F  F5  1  0.10854  0.76000  0.02293  1
 F  F6  1  0.13146  0.97707  0.76000  1
 F  F7  1  -0.00000  0.50000  0.50000  1
 F  F8  1  0.50000  0.50000  0.50000  1
 F  F9  1  -0.00000  0.50000  -0.00000  1
 F  F10  1  0.00000  0.00000  0.50000  1
 F  F11  1  0.50000  0.00000  0.50000  1
 F  F12  1  0.50000  0.50000  -0.00000  1
 F  F13  1  0.25000  0.30642  0.69358  1
 F  F14  1  0.55642  0.69358  0.69358  1
 F  F15  1  0.94358  0.30642  0.30642  1
 F  F16  1  0.44358  0.30642  0.30642  1
 F  F17  1  0.75000  0.69358  0.30642  1
 F  F18  1  0.75000  0.30642  0.69358  1
 F  F19  1  0.05642  0.69358  0.69358  1
 F  F20  1  0.89146  0.24000  0.97707  1
 F  F21  1  0.86854  0.02293  0.24000  1
 F  F22  1  0.39146  0.97707  0.24000  1
 Th  Th1  1  0.64437  0.21125  0.50000  1
 Th  Th2  1  0.14437  0.50000  0.21125  1
 Th  Th3  1  0.35563  0.78875  0.50000  1
 Th  Th4  1  0.85563  0.50000  0.78875  1
