CIF file written using JARVIS-Tools package.
data_Dy4MgRh
_symmetry_space_group_name_H-M  'F-43m'
_cell_length_a       9.62554
_cell_length_b       9.62554
_cell_length_c       9.62554
_cell_angle_alpha    60
_cell_angle_beta     60
_cell_angle_gamma    60

_symmetry_Int_Tables_number  216
_chemical_formula_structural  Dy4MgRh
_chemical_formula_sum  Dy6Mg4Rh4
_cell_volume  630.6095191080597
_cell_formula_units_Z  4
loop_
  _symmetry_equiv_pos_site_id
 _symmetry_equiv_pos_as_xyz
 1  'x, y, z'
loop_
 _atom_site_type_symbol
 _atom_site_label
 _atom_site_symmetry_multiplicity
 _atom_site_fract_x
 _atom_site_fract_y
 _atom_site_fract_z
 _atom_site_fract_occupancy
 Dy  Dy1  1  0.93480  0.93480  0.56520  1
 Dy  Dy2  1  0.93480  0.56520  0.93480  1
 Dy  Dy3  1  0.34706  0.34706  0.34706  1
 Dy  Dy4  1  0.18751  0.81249  0.81249  1
 Dy  Dy5  1  0.56520  0.56520  0.93480  1
 Dy  Dy6  1  0.81249  0.18751  0.18751  1
 Dy  Dy7  1  0.18751  0.18751  0.81249  1
 Dy  Dy8  1  0.34706  0.34706  0.95881  1
 Dy  Dy9  1  0.56520  0.93480  0.93480  1
 Dy  Dy10  1  0.95881  0.34706  0.34706  1
 Dy  Dy11  1  0.81249  0.81249  0.18751  1
 Dy  Dy12  1  0.81249  0.18751  0.81249  1
 Dy  Dy13  1  0.93480  0.56520  0.56520  1
 Dy  Dy14  1  0.18751  0.81249  0.18751  1
 Dy  Dy15  1  0.34706  0.95881  0.34706  1
 Dy  Dy16  1  0.56520  0.93480  0.56520  1
 Mg  Mg1  1  0.57989  0.57989  0.26032  1
 Mg  Mg2  1  0.57989  0.26032  0.57989  1
 Mg  Mg3  1  0.57989  0.57989  0.57989  1
 Mg  Mg4  1  0.26032  0.57989  0.57989  1
 Rh  Rh1  1  0.57440  0.14187  0.14187  1
 Rh  Rh2  1  0.14187  0.14187  0.57440  1
 Rh  Rh3  1  0.14187  0.14187  0.14187  1
 Rh  Rh4  1  0.14187  0.57440  0.14187  1
