CIF file written using JARVIS-Tools package.
data_NiSeO3
_symmetry_space_group_name_H-M  'Pnma'
_cell_length_a       4.98596
_cell_length_b       5.89957
_cell_length_c       7.51808
_cell_angle_alpha    90
_cell_angle_beta     90
_cell_angle_gamma    90

_symmetry_Int_Tables_number  62
_chemical_formula_structural  NiSeO3
_chemical_formula_sum  Ni4Se4O2
_cell_volume  221.14443263503875
_cell_formula_units_Z  4
loop_
  _symmetry_equiv_pos_site_id
 _symmetry_equiv_pos_as_xyz
 1  'x, y, z'
loop_
 _atom_site_type_symbol
 _atom_site_label
 _atom_site_symmetry_multiplicity
 _atom_site_fract_x
 _atom_site_fract_y
 _atom_site_fract_z
 _atom_site_fract_occupancy
 Ni  Ni1  1  0.50000  0.00000  0.00000  1
 Ni  Ni2  1  0.00000  0.50000  0.00000  1
 Ni  Ni3  1  0.00000  0.50000  0.50000  1
 Ni  Ni4  1  0.50000  0.00000  0.50000  1
 O  O1  1  0.85945  0.18337  0.42730  1
 O  O2  1  0.67310  0.92699  0.75000  1
 O  O3  1  0.64055  0.68337  0.07270  1
 O  O4  1  0.14055  0.81663  0.92730  1
 O  O5  1  0.35945  0.31663  0.57270  1
 O  O6  1  0.64055  0.68337  0.42730  1
 O  O7  1  0.35945  0.31663  0.92730  1
 O  O8  1  0.32690  0.07301  0.25000  1
 O  O9  1  0.14055  0.81663  0.57270  1
 O  O10  1  0.82690  0.42699  0.75000  1
 O  O11  1  0.85945  0.18337  0.07270  1
 O  O12  1  0.17310  0.57301  0.25000  1
 Se  Se1  1  0.01967  0.98431  0.75000  1
 Se  Se2  1  0.51967  0.51569  0.25000  1
 Se  Se3  1  0.48033  0.48431  0.75000  1
 Se  Se4  1  0.98033  0.01569  0.25000  1
