CIF file written using JARVIS-Tools package.
data_Yb2LiInGe2
_symmetry_space_group_name_H-M  'Pnma'
_cell_length_a       4.37731
_cell_length_b       7.14231
_cell_length_c       16.6155
_cell_angle_alpha    90
_cell_angle_beta     90
_cell_angle_gamma    90

_symmetry_Int_Tables_number  62
_chemical_formula_structural  Yb2LiInGe2
_chemical_formula_sum  Yb8Li4In4Ge8
_cell_volume  519.4669106514352
_cell_formula_units_Z  4
loop_
  _symmetry_equiv_pos_site_id
 _symmetry_equiv_pos_as_xyz
 1  'x, y, z'
loop_
 _atom_site_type_symbol
 _atom_site_label
 _atom_site_symmetry_multiplicity
 _atom_site_fract_x
 _atom_site_fract_y
 _atom_site_fract_z
 _atom_site_fract_occupancy
 Ge  Ge1  1  0.25000  0.23059  0.56072  1
 Ge  Ge2  1  0.75000  0.76941  0.43928  1
 Ge  Ge3  1  0.25000  0.26851  0.31577  1
 Ge  Ge4  1  0.75000  0.23149  0.81577  1
 Ge  Ge5  1  0.25000  0.76851  0.18423  1
 Ge  Ge6  1  0.75000  0.73149  0.68423  1
 Ge  Ge7  1  0.75000  0.26941  0.06072  1
 Ge  Ge8  1  0.25000  0.73059  0.93928  1
 In  In1  1  0.25000  0.15539  0.15326  1
 In  In2  1  0.75000  0.34461  0.65326  1
 In  In3  1  0.25000  0.65539  0.34674  1
 In  In4  1  0.75000  0.84461  0.84674  1
 Li  Li1  1  0.25000  0.50973  0.06693  1
 Li  Li2  1  0.25000  0.00973  0.43307  1
 Li  Li3  1  0.75000  0.49027  0.93307  1
 Li  Li4  1  0.75000  0.99027  0.56693  1
 Yb  Yb1  1  0.25000  0.15684  0.93788  1
 Yb  Yb2  1  0.75000  0.34316  0.43788  1
 Yb  Yb3  1  0.25000  0.65684  0.56212  1
 Yb  Yb4  1  0.75000  0.84316  0.06212  1
 Yb  Yb5  1  0.25000  0.01487  0.72046  1
 Yb  Yb6  1  0.75000  0.48513  0.22046  1
 Yb  Yb7  1  0.25000  0.51487  0.77954  1
 Yb  Yb8  1  0.75000  0.98513  0.27954  1
