CIF file written using JARVIS-Tools package.
data_SnCl4
_symmetry_space_group_name_H-M  'P2_1/c'
_cell_length_a       9.66075
_cell_length_b       6.53873
_cell_length_c       9.75939
_cell_angle_alpha    90
_cell_angle_beta     102.043
_cell_angle_gamma    90

_symmetry_Int_Tables_number  14
_chemical_formula_structural  SnCl4
_chemical_formula_sum  Sn4Cl6
_cell_volume  602.923034323889
_cell_formula_units_Z  4
loop_
  _symmetry_equiv_pos_site_id
 _symmetry_equiv_pos_as_xyz
 1  'x, y, z'
loop_
 _atom_site_type_symbol
 _atom_site_label
 _atom_site_symmetry_multiplicity
 _atom_site_fract_x
 _atom_site_fract_y
 _atom_site_fract_z
 _atom_site_fract_occupancy
 Cl  Cl1  1  0.31336  0.08505  0.43438  1
 Cl  Cl2  1  0.18706  0.91205  0.06098  1
 Cl  Cl3  1  0.81294  0.41205  0.43902  1
 Cl  Cl4  1  0.81294  0.08795  0.93902  1
 Cl  Cl5  1  0.18706  0.58795  0.56098  1
 Cl  Cl6  1  0.05636  0.42230  0.18284  1
 Cl  Cl7  1  0.56375  0.41256  0.69124  1
 Cl  Cl8  1  0.94364  0.92230  0.31716  1
 Cl  Cl9  1  0.05636  0.07770  0.68284  1
 Cl  Cl10  1  0.43625  0.91256  0.80876  1
 Cl  Cl11  1  0.68664  0.58505  0.06562  1
 Cl  Cl12  1  0.68664  0.91495  0.56562  1
 Cl  Cl13  1  0.31336  0.41495  0.93438  1
 Cl  Cl14  1  0.43625  0.58744  0.30876  1
 Cl  Cl15  1  0.56375  0.08744  0.19124  1
 Cl  Cl16  1  0.94364  0.57770  0.81716  1
 Sn  Sn1  1  0.24722  0.41909  0.37258  1
 Sn  Sn2  1  0.75278  0.91909  0.12742  1
 Sn  Sn3  1  0.75278  0.58091  0.62742  1
 Sn  Sn4  1  0.24722  0.08091  0.87258  1
