CIF file written using JARVIS-Tools package.
data_V3Si
_symmetry_space_group_name_H-M  'Im-3m'
_cell_length_a       4.92173
_cell_length_b       4.92173
_cell_length_c       4.92173
_cell_angle_alpha    90
_cell_angle_beta     90
_cell_angle_gamma    90

_symmetry_Int_Tables_number  229
_chemical_formula_structural  V3Si
_chemical_formula_sum  V6Si2
_cell_volume  119.22142119029415
_cell_formula_units_Z  2
loop_
  _symmetry_equiv_pos_site_id
 _symmetry_equiv_pos_as_xyz
 1  'x, y, z'
loop_
 _atom_site_type_symbol
 _atom_site_label
 _atom_site_symmetry_multiplicity
 _atom_site_fract_x
 _atom_site_fract_y
 _atom_site_fract_z
 _atom_site_fract_occupancy
 Si  Si1  1  0.00000  0.00000  0.00000  1
 Si  Si2  1  0.50000  0.50000  0.50000  1
 V  V1  1  0.00000  0.50000  0.50000  1
 V  V2  1  0.00000  0.50000  0.00000  1
 V  V3  1  0.00000  0.00000  0.50000  1
 V  V4  1  0.50000  0.00000  0.00000  1
 V  V5  1  0.50000  0.00000  0.50000  1
 V  V6  1  0.50000  0.50000  0.00000  1
