CIF file written using JARVIS-Tools package.
data_NiPS
_symmetry_space_group_name_H-M  'P2_13'
_cell_length_a       5.58136
_cell_length_b       5.58136
_cell_length_c       5.58136
_cell_angle_alpha    90
_cell_angle_beta     90
_cell_angle_gamma    90

_symmetry_Int_Tables_number  198
_chemical_formula_structural  NiPS
_chemical_formula_sum  Ni4P4S4
_cell_volume  173.8680000498326
_cell_formula_units_Z  4
loop_
  _symmetry_equiv_pos_site_id
 _symmetry_equiv_pos_as_xyz
 1  'x, y, z'
loop_
 _atom_site_type_symbol
 _atom_site_label
 _atom_site_symmetry_multiplicity
 _atom_site_fract_x
 _atom_site_fract_y
 _atom_site_fract_z
 _atom_site_fract_occupancy
 Ni  Ni1  1  0.00562  0.00562  0.00562  1
 Ni  Ni2  1  0.49438  0.99438  0.50562  1
 Ni  Ni3  1  0.50562  0.49438  0.99438  1
 Ni  Ni4  1  0.99438  0.50562  0.49438  1
 P  P1  1  0.61169  0.61169  0.61169  1
 P  P2  1  0.88831  0.38831  0.11169  1
 P  P3  1  0.11169  0.88831  0.38831  1
 P  P4  1  0.38831  0.11169  0.88831  1
 S  S1  1  0.38870  0.38870  0.38870  1
 S  S2  1  0.11130  0.61130  0.88870  1
 S  S3  1  0.88870  0.11130  0.61130  1
 S  S4  1  0.61130  0.88870  0.11130  1
