CIF file written using JARVIS-Tools package.
data_Ho3Al2Ni6
_symmetry_space_group_name_H-M  'Im-3m'
_cell_length_a       7.69734
_cell_length_b       7.69734
_cell_length_c       7.69734
_cell_angle_alpha    109.471
_cell_angle_beta     109.471
_cell_angle_gamma    109.471

_symmetry_Int_Tables_number  229
_chemical_formula_structural  Ho3Al2Ni6
_chemical_formula_sum  Ho6Al4Ni2
_cell_volume  351.0745940985782
_cell_formula_units_Z  2
loop_
  _symmetry_equiv_pos_site_id
 _symmetry_equiv_pos_as_xyz
 1  'x, y, z'
loop_
 _atom_site_type_symbol
 _atom_site_label
 _atom_site_symmetry_multiplicity
 _atom_site_fract_x
 _atom_site_fract_y
 _atom_site_fract_z
 _atom_site_fract_occupancy
 Al  Al1  1  0.50000  0.50000  0.50000  1
 Al  Al2  1  0.00000  0.00000  0.50000  1
 Al  Al3  1  -0.00000  0.50000  0.00000  1
 Al  Al4  1  0.50000  0.00000  -0.00000  1
 Ho  Ho1  1  0.29364  -0.00000  0.29364  1
 Ho  Ho2  1  0.70636  0.70636  0.00000  1
 Ho  Ho3  1  0.29364  0.29364  -0.00000  1
 Ho  Ho4  1  0.00000  0.70636  0.70636  1
 Ho  Ho5  1  -0.00000  0.29364  0.29364  1
 Ho  Ho6  1  0.70636  0.00000  0.70636  1
 Ni  Ni1  1  0.33417  0.66583  -0.00000  1
 Ni  Ni2  1  -0.00000  0.33417  0.66583  1
 Ni  Ni3  1  0.66583  0.33417  0.00000  1
 Ni  Ni4  1  0.00000  0.66583  0.33417  1
 Ni  Ni5  1  0.66583  0.33166  0.66583  1
 Ni  Ni6  1  0.66583  0.00000  0.33417  1
 Ni  Ni7  1  0.66834  0.33417  0.33417  1
 Ni  Ni8  1  0.33417  0.33417  0.66834  1
 Ni  Ni9  1  0.33417  -0.00000  0.66583  1
 Ni  Ni10  1  0.33417  0.66834  0.33417  1
 Ni  Ni11  1  0.66583  0.66583  0.33166  1
 Ni  Ni12  1  0.33166  0.66583  0.66583  1
