CIF file written using JARVIS-Tools package.
data_Te4Mo3S2
_symmetry_space_group_name_H-M  'P1'
_cell_length_a       5.94483
_cell_length_b       13.9824
_cell_length_c       5.94211
_cell_angle_alpha    90.9218
_cell_angle_beta     119.94
_cell_angle_gamma    90.5049

_symmetry_Int_Tables_number  1
_chemical_formula_structural  Te4Mo3S2
_chemical_formula_sum  Te8Mo6S4
_cell_volume  427.875431329479
_cell_formula_units_Z  2
loop_
  _symmetry_equiv_pos_site_id
 _symmetry_equiv_pos_as_xyz
 1  'x, y, z'
loop_
 _atom_site_type_symbol
 _atom_site_label
 _atom_site_symmetry_multiplicity
 _atom_site_fract_x
 _atom_site_fract_y
 _atom_site_fract_z
 _atom_site_fract_occupancy
 Mo  Mo1  1  0.31722  0.23801  0.32729  1
 Mo  Mo2  1  0.33263  0.75460  0.02412  1
 Mo  Mo3  1  0.96591  0.23987  0.62488  1
 Mo  Mo4  1  0.03326  0.75363  0.37339  1
 Mo  Mo5  1  0.66829  0.23899  0.97643  1
 Mo  Mo6  1  0.68175  0.75370  0.67268  1
 S  S1  1  0.34383  0.64964  0.34948  1
 S  S2  1  0.64665  0.13350  0.63720  1
 S  S3  1  0.02063  0.85767  0.69610  1
 S  S4  1  0.97776  0.13334  0.30344  1
 Te  Te1  1  0.65508  0.37753  0.65029  1
 Te  Te2  1  0.30782  0.10900  0.96461  1
 Te  Te3  1  0.32450  0.36550  0.98598  1
 Te  Te4  1  0.35629  0.89413  0.36728  1
 Te  Te5  1  0.00983  0.61481  0.68241  1
 Te  Te6  1  -0.00721  0.37754  0.31752  1
 Te  Te7  1  0.67485  0.62581  0.01513  1
 Te  Te8  1  0.69093  0.88273  0.03177  1
