CIF file written using JARVIS-Tools package.
data_Hf6Co16Ge7
_symmetry_space_group_name_H-M  'Fm-3m'
_cell_length_a       8.1364
_cell_length_b       8.13641
_cell_length_c       8.13641
_cell_angle_alpha    60
_cell_angle_beta     60
_cell_angle_gamma    60

_symmetry_Int_Tables_number  225
_chemical_formula_structural  Hf6Co16Ge7
_chemical_formula_sum  Hf6Co6Ge7
_cell_volume  380.8752777369392
_cell_formula_units_Z  1
loop_
  _symmetry_equiv_pos_site_id
 _symmetry_equiv_pos_as_xyz
 1  'x, y, z'
loop_
 _atom_site_type_symbol
 _atom_site_label
 _atom_site_symmetry_multiplicity
 _atom_site_fract_x
 _atom_site_fract_y
 _atom_site_fract_z
 _atom_site_fract_occupancy
 Co  Co1  1  0.16889  0.49332  0.16889  1
 Co  Co2  1  0.37975  0.37975  0.86076  1
 Co  Co3  1  0.83111  0.83111  0.50668  1
 Co  Co4  1  0.16889  0.16889  0.49332  1
 Co  Co5  1  0.83111  0.50668  0.83111  1
 Co  Co6  1  0.62025  0.62025  0.13924  1
 Co  Co7  1  0.16889  0.16889  0.16889  1
 Co  Co8  1  0.37975  0.86076  0.37975  1
 Co  Co9  1  0.62025  0.62025  0.62025  1
 Co  Co10  1  0.49332  0.16889  0.16889  1
 Co  Co11  1  0.86076  0.37975  0.37975  1
 Co  Co12  1  0.83111  0.83111  0.83111  1
 Co  Co13  1  0.13924  0.62025  0.62025  1
 Co  Co14  1  0.50668  0.83111  0.83111  1
 Co  Co15  1  0.37975  0.37975  0.37975  1
 Co  Co16  1  0.62025  0.13924  0.62025  1
 Ge  Ge1  1  0.50000  0.50000  0.00000  1
 Ge  Ge2  1  0.00000  0.50000  0.50000  1
 Ge  Ge3  1  0.50000  0.00000  0.50000  1
 Ge  Ge4  1  0.50000  0.50000  0.50000  1
 Ge  Ge5  1  0.00000  0.50000  0.00000  1
 Ge  Ge6  1  0.00000  0.00000  0.50000  1
 Ge  Ge7  1  0.50000  0.00000  -0.00000  1
 Hf  Hf1  1  0.79631  0.20369  0.20369  1
 Hf  Hf2  1  0.20369  0.79631  0.79631  1
 Hf  Hf3  1  0.20369  0.79631  0.20369  1
 Hf  Hf4  1  0.20369  0.20369  0.79631  1
 Hf  Hf5  1  0.79631  0.20369  0.79631  1
 Hf  Hf6  1  0.79631  0.79631  0.20369  1
