CIF file written using JARVIS-Tools package.
data_ReH8Br6N2
_symmetry_space_group_name_H-M  'Fm-3m'
_cell_length_a       7.34454
_cell_length_b       7.34454
_cell_length_c       7.34454
_cell_angle_alpha    60
_cell_angle_beta     60
_cell_angle_gamma    60

_symmetry_Int_Tables_number  225
_chemical_formula_structural  ReH8Br6N2
_chemical_formula_sum  ReH8Br6N2
_cell_volume  280.1426279787921
_cell_formula_units_Z  1
loop_
  _symmetry_equiv_pos_site_id
 _symmetry_equiv_pos_as_xyz
 1  'x, y, z'
loop_
 _atom_site_type_symbol
 _atom_site_label
 _atom_site_symmetry_multiplicity
 _atom_site_fract_x
 _atom_site_fract_y
 _atom_site_fract_z
 _atom_site_fract_occupancy
 Br  Br1  1  0.75630  0.24370  0.75630  1
 Br  Br2  1  0.24370  0.75630  0.24370  1
 Br  Br3  1  0.75630  0.24370  0.24370  1
 Br  Br4  1  0.24370  0.75630  0.75630  1
 Br  Br5  1  0.24370  0.24370  0.75630  1
 Br  Br6  1  0.75630  0.75630  0.24370  1
 H  H1  1  0.69231  0.69231  0.92307  1
 H  H2  1  0.30769  0.07693  0.30769  1
 H  H3  1  0.07693  0.30769  0.30769  1
 H  H4  1  0.92307  0.69231  0.69231  1
 H  H5  1  0.69231  0.69231  0.69231  1
 H  H6  1  0.69231  0.92307  0.69231  1
 H  H7  1  0.30769  0.30769  0.07693  1
 H  H8  1  0.30769  0.30769  0.30769  1
 N  N1  1  0.75000  0.75000  0.75000  1
 N  N2  1  0.25000  0.25000  0.25000  1
 Re  Re1  1  0.00000  0.00000  0.00000  1
