CIF file written using JARVIS-Tools package.
data_Tm4InRh
_symmetry_space_group_name_H-M  'F-43m'
_cell_length_a       9.45924
_cell_length_b       9.45923
_cell_length_c       9.45923
_cell_angle_alpha    60
_cell_angle_beta     60
_cell_angle_gamma    60

_symmetry_Int_Tables_number  216
_chemical_formula_structural  Tm4InRh
_chemical_formula_sum  Tm6In4Rh4
_cell_volume  598.4844544694184
_cell_formula_units_Z  4
loop_
  _symmetry_equiv_pos_site_id
 _symmetry_equiv_pos_as_xyz
 1  'x, y, z'
loop_
 _atom_site_type_symbol
 _atom_site_label
 _atom_site_symmetry_multiplicity
 _atom_site_fract_x
 _atom_site_fract_y
 _atom_site_fract_z
 _atom_site_fract_occupancy
 In  In1  1  0.41614  0.75158  0.41614  1
 In  In2  1  0.75158  0.41614  0.41614  1
 In  In3  1  0.41614  0.41614  0.75158  1
 In  In4  1  0.41614  0.41614  0.41614  1
 Rh  Rh1  1  0.42719  0.85760  0.85760  1
 Rh  Rh2  1  0.85760  0.42719  0.85760  1
 Rh  Rh3  1  0.85760  0.85760  0.42719  1
 Rh  Rh4  1  0.85760  0.85760  0.85760  1
 Tm  Tm1  1  0.18943  0.81057  0.18943  1
 Tm  Tm2  1  0.06227  0.43773  0.43773  1
 Tm  Tm3  1  0.43773  0.06227  0.06227  1
 Tm  Tm4  1  0.65006  0.65006  0.04981  1
 Tm  Tm5  1  0.06227  0.43773  0.06227  1
 Tm  Tm6  1  0.81057  0.18943  0.18943  1
 Tm  Tm7  1  0.43773  0.43773  0.06227  1
 Tm  Tm8  1  0.81057  0.18943  0.81057  1
 Tm  Tm9  1  0.06227  0.06227  0.43773  1
 Tm  Tm10  1  0.18943  0.18943  0.81057  1
 Tm  Tm11  1  0.18943  0.81057  0.81057  1
 Tm  Tm12  1  0.81057  0.81057  0.18943  1
 Tm  Tm13  1  0.65006  0.04981  0.65006  1
 Tm  Tm14  1  0.65006  0.65006  0.65006  1
 Tm  Tm15  1  0.04981  0.65006  0.65006  1
 Tm  Tm16  1  0.43773  0.06227  0.43773  1
