CIF file written using JARVIS-Tools package.
data_TiSiRu
_symmetry_space_group_name_H-M  'Ima2'
_cell_length_a       6.50265
_cell_length_b       7.10359
_cell_length_c       7.39475
_cell_angle_alpha    118.706
_cell_angle_beta     116.084
_cell_angle_gamma    90

_symmetry_Int_Tables_number  46
_chemical_formula_structural  TiSiRu
_chemical_formula_sum  Ti6Si6Ru6
_cell_volume  259.23663559279777
_cell_formula_units_Z  6
loop_
  _symmetry_equiv_pos_site_id
 _symmetry_equiv_pos_as_xyz
 1  'x, y, z'
loop_
 _atom_site_type_symbol
 _atom_site_label
 _atom_site_symmetry_multiplicity
 _atom_site_fract_x
 _atom_site_fract_y
 _atom_site_fract_z
 _atom_site_fract_occupancy
 Ru  Ru1  1  0.74997  0.16200  0.25309  1
 Ru  Ru2  1  0.49688  0.83800  0.74691  1
 Ru  Ru3  1  0.24533  -0.00000  -0.00000  1
 Ru  Ru4  1  0.24533  0.50000  -0.00000  1
 Ru  Ru5  1  0.49688  0.40891  0.74691  1
 Ru  Ru6  1  0.74997  0.59109  0.25309  1
 Si  Si1  1  0.82741  0.82629  0.66500  1
 Si  Si2  1  0.16242  0.17371  0.33500  1
 Si  Si3  1  0.16242  0.66129  0.33500  1
 Si  Si4  1  0.82741  0.33871  0.66500  1
 Si  Si5  1  0.53864  0.78186  0.06373  1
 Si  Si6  1  0.47491  0.21814  0.93627  1
 Ti  Ti1  1  0.91391  0.24665  0.99330  1
 Ti  Ti2  1  0.49293  0.97393  0.44787  1
 Ti  Ti3  1  0.49139  0.44533  0.39066  1
 Ti  Ti4  1  0.92062  0.75335  0.00670  1
 Ti  Ti5  1  0.10073  0.55467  0.60934  1
 Ti  Ti6  1  0.04506  0.02607  0.55213  1
