CIF file written using JARVIS-Tools package.
data_Li3VP2O8
_symmetry_space_group_name_H-M  'C2/m'
_cell_length_a       6.13513
_cell_length_b       5.42466
_cell_length_c       8.17865
_cell_angle_alpha    90
_cell_angle_beta     90.5715
_cell_angle_gamma    90

_symmetry_Int_Tables_number  12
_chemical_formula_structural  Li3VP2O8
_chemical_formula_sum  Li6V2P4O6
_cell_volume  272.18023194188015
_cell_formula_units_Z  2
loop_
  _symmetry_equiv_pos_site_id
 _symmetry_equiv_pos_as_xyz
 1  'x, y, z'
loop_
 _atom_site_type_symbol
 _atom_site_label
 _atom_site_symmetry_multiplicity
 _atom_site_fract_x
 _atom_site_fract_y
 _atom_site_fract_z
 _atom_site_fract_occupancy
 Li  Li1  1  0.72931  0.75000  0.92223  1
 Li  Li2  1  0.50001  0.25000  0.74999  1
 Li  Li3  1  0.27067  0.75000  0.57777  1
 Li  Li4  1  0.72933  0.25000  0.42223  1
 Li  Li5  1  0.49999  0.75000  0.25001  1
 Li  Li6  1  0.27069  0.25000  0.07777  1
 O  O1  1  0.76875  0.52040  0.71873  1
 O  O2  1  0.44216  0.75000  0.00421  1
 O  O3  1  0.23125  0.52040  0.78127  1
 O  O4  1  0.23125  0.97960  0.78127  1
 O  O5  1  0.96916  0.25000  0.99287  1
 O  O6  1  0.76875  0.97960  0.71873  1
 O  O7  1  0.55784  0.25000  0.99579  1
 O  O8  1  0.44218  0.25000  0.50420  1
 O  O9  1  0.03084  0.75000  0.00713  1
 O  O10  1  0.96914  0.75000  0.49287  1
 O  O11  1  0.76875  0.02040  0.21873  1
 O  O12  1  0.23125  0.47960  0.28127  1
 O  O13  1  0.03086  0.25000  0.50713  1
 O  O14  1  0.76875  0.47960  0.21873  1
 O  O15  1  0.23125  0.02040  0.28127  1
 O  O16  1  0.55782  0.75000  0.49580  1
 P  P1  1  0.23835  0.75000  0.89933  1
 P  P2  1  0.76164  0.75000  0.60067  1
 P  P3  1  0.23836  0.25000  0.39933  1
 P  P4  1  0.76165  0.25000  0.10067  1
 V  V1  1  1.00000  0.75000  0.25000  1
 V  V2  1  0.00000  0.25000  0.75000  1
