CIF file written using JARVIS-Tools package.
data_Rb2Se5
_symmetry_space_group_name_H-M  'P2_12_12_1'
_cell_length_a       6.80419
_cell_length_b       7.17098
_cell_length_c       18.1564
_cell_angle_alpha    90
_cell_angle_beta     90
_cell_angle_gamma    90

_symmetry_Int_Tables_number  19
_chemical_formula_structural  Rb2Se5
_chemical_formula_sum  Rb8Se20
_cell_volume  885.9016974858943
_cell_formula_units_Z  4
loop_
  _symmetry_equiv_pos_site_id
 _symmetry_equiv_pos_as_xyz
 1  'x, y, z'
loop_
 _atom_site_type_symbol
 _atom_site_label
 _atom_site_symmetry_multiplicity
 _atom_site_fract_x
 _atom_site_fract_y
 _atom_site_fract_z
 _atom_site_fract_occupancy
 Rb  Rb1  1  0.58741  0.24191  0.16049  1
 Rb  Rb2  1  0.61519  0.41458  0.50945  1
 Rb  Rb3  1  0.91259  0.75809  0.66049  1
 Rb  Rb4  1  0.88481  0.58542  0.00945  1
 Rb  Rb5  1  0.11519  0.08542  0.49055  1
 Rb  Rb6  1  0.38481  0.91458  0.99055  1
 Rb  Rb7  1  0.41259  0.74191  0.33951  1
 Rb  Rb8  1  0.08741  0.25809  0.83951  1
 Se  Se1  1  0.57996  0.74357  0.16322  1
 Se  Se2  1  0.24718  0.63567  0.15195  1
 Se  Se3  1  0.25282  0.36433  0.65195  1
 Se  Se4  1  0.89888  0.07976  0.01539  1
 Se  Se5  1  0.03167  0.87127  0.20480  1
 Se  Se6  1  0.42343  0.86091  0.62531  1
 Se  Se7  1  0.53167  0.62873  0.79520  1
 Se  Se8  1  0.96833  0.37127  0.29520  1
 Se  Se9  1  0.07657  0.13909  0.12531  1
 Se  Se10  1  0.74718  0.86433  0.84805  1
 Se  Se11  1  0.92004  0.25643  0.66322  1
 Se  Se12  1  0.60112  0.92024  0.51539  1
 Se  Se13  1  0.57657  0.36091  0.87469  1
 Se  Se14  1  0.46833  0.12873  0.70480  1
 Se  Se15  1  0.42004  0.24357  0.33678  1
 Se  Se16  1  0.92343  0.63909  0.37469  1
 Se  Se17  1  0.75282  0.13567  0.34805  1
 Se  Se18  1  0.07996  0.75643  0.83678  1
 Se  Se19  1  0.10112  0.57976  0.48461  1
 Se  Se20  1  0.39888  0.42024  0.98461  1
