CIF file written using JARVIS-Tools package.
data_Ba5Al5Sn
_symmetry_space_group_name_H-M  'P-6m2'
_cell_length_a       6.10568
_cell_length_b       6.10568
_cell_length_c       11.1255
_cell_angle_alpha    90
_cell_angle_beta     90
_cell_angle_gamma    120

_symmetry_Int_Tables_number  187
_chemical_formula_structural  Ba5Al5Sn
_chemical_formula_sum  Ba5Al5Sn
_cell_volume  359.1833067575926
_cell_formula_units_Z  1
loop_
  _symmetry_equiv_pos_site_id
 _symmetry_equiv_pos_as_xyz
 1  'x, y, z'
loop_
 _atom_site_type_symbol
 _atom_site_label
 _atom_site_symmetry_multiplicity
 _atom_site_fract_x
 _atom_site_fract_y
 _atom_site_fract_z
 _atom_site_fract_occupancy
 Al  Al1  1  0.97232  0.48616  0.50000  1
 Al  Al2  1  0.33333  0.66667  0.67646  1
 Al  Al3  1  0.51384  0.48616  0.50000  1
 Al  Al4  1  0.51384  0.02768  0.50000  1
 Al  Al5  1  0.33333  0.66667  0.32354  1
 Ba  Ba1  1  0.66667  0.33333  0.79998  1
 Ba  Ba2  1  0.66667  0.33333  0.20002  1
 Ba  Ba3  1  0.00000  0.00000  0.67320  1
 Ba  Ba4  1  0.00000  0.00000  0.32680  1
 Ba  Ba5  1  0.33333  0.66667  0.00000  1
 Sn  Sn1  1  0.00000  0.00000  0.00000  1
