CIF file written using JARVIS-Tools package.
data_Sr3B2O6
_symmetry_space_group_name_H-M  'R-3c'
_cell_length_a       6.7045
_cell_length_b       6.7045
_cell_length_c       6.70449
_cell_angle_alpha    85.6063
_cell_angle_beta     85.6063
_cell_angle_gamma    85.6063

_symmetry_Int_Tables_number  167
_chemical_formula_structural  Sr3B2O6
_chemical_formula_sum  Sr6B4O2
_cell_volume  298.84093818836124
_cell_formula_units_Z  2
loop_
  _symmetry_equiv_pos_site_id
 _symmetry_equiv_pos_as_xyz
 1  'x, y, z'
loop_
 _atom_site_type_symbol
 _atom_site_label
 _atom_site_symmetry_multiplicity
 _atom_site_fract_x
 _atom_site_fract_y
 _atom_site_fract_z
 _atom_site_fract_occupancy
 B  B1  1  0.38404  0.38404  0.38404  1
 B  B2  1  0.11596  0.11596  0.11596  1
 B  B3  1  0.88404  0.88404  0.88404  1
 B  B4  1  0.61596  0.61596  0.61596  1
 O  O1  1  0.77260  0.60419  0.46655  1
 O  O2  1  0.89581  0.72740  0.03345  1
 O  O3  1  0.22740  0.39581  0.53345  1
 O  O4  1  0.39581  0.53345  0.22740  1
 O  O5  1  0.53345  0.22740  0.39581  1
 O  O6  1  0.96655  0.10419  0.27260  1
 O  O7  1  0.10419  0.27260  0.96655  1
 O  O8  1  0.72740  0.03345  0.89581  1
 O  O9  1  0.27260  0.96655  0.10419  1
 O  O10  1  0.46655  0.77260  0.60419  1
 O  O11  1  0.03345  0.89581  0.72740  1
 O  O12  1  0.60419  0.46655  0.77260  1
 Sr  Sr1  1  0.25000  0.60505  0.89495  1
 Sr  Sr2  1  0.10505  0.75000  0.39495  1
 Sr  Sr3  1  0.75000  0.39495  0.10505  1
 Sr  Sr4  1  0.39495  0.10505  0.75000  1
 Sr  Sr5  1  0.89495  0.25000  0.60505  1
 Sr  Sr6  1  0.60505  0.89495  0.25000  1
