CIF file written using JARVIS-Tools package.
data_Pd7Se2
_symmetry_space_group_name_H-M  'P2_1/c'
_cell_length_a       5.6471
_cell_length_b       5.42513
_cell_length_c       9.5296
_cell_angle_alpha    90
_cell_angle_beta     93.6893
_cell_angle_gamma    90

_symmetry_Int_Tables_number  14
_chemical_formula_structural  Pd7Se2
_chemical_formula_sum  Pd4Se4
_cell_volume  291.3466449416049
_cell_formula_units_Z  2
loop_
  _symmetry_equiv_pos_site_id
 _symmetry_equiv_pos_as_xyz
 1  'x, y, z'
loop_
 _atom_site_type_symbol
 _atom_site_label
 _atom_site_symmetry_multiplicity
 _atom_site_fract_x
 _atom_site_fract_y
 _atom_site_fract_z
 _atom_site_fract_occupancy
 Pd  Pd1  1  0.20730  0.08339  0.42516  1
 Pd  Pd2  1  0.57311  0.65782  0.79324  1
 Pd  Pd3  1  0.79270  0.58339  0.07484  1
 Pd  Pd4  1  0.96833  0.39767  0.64820  1
 Pd  Pd5  1  0.03167  0.89767  0.85180  1
 Pd  Pd6  1  0.03167  0.60233  0.35180  1
 Pd  Pd7  1  0.42689  0.34218  0.20676  1
 Pd  Pd8  1  0.96833  0.10233  0.14820  1
 Pd  Pd9  1  0.57311  0.84218  0.29324  1
 Pd  Pd10  1  0.20730  0.41661  0.92516  1
 Pd  Pd11  1  0.79270  0.91661  0.57484  1
 Pd  Pd12  1  0.50000  0.50000  0.50000  1
 Pd  Pd13  1  0.50000  0.00000  -0.00000  1
 Pd  Pd14  1  0.42689  0.15782  0.70676  1
 Se  Se1  1  0.22501  0.72855  0.12138  1
 Se  Se2  1  0.22501  0.77145  0.62138  1
 Se  Se3  1  0.77499  0.22855  0.37862  1
 Se  Se4  1  0.77499  0.27145  0.87862  1
