CIF file written using JARVIS-Tools package.
data_Te2Mo3WSe2S4
_symmetry_space_group_name_H-M  'P3m1'
_cell_length_a       3.31277
_cell_length_b       3.31272
_cell_length_c       34.6247
_cell_angle_alpha    90.0063
_cell_angle_beta     90
_cell_angle_gamma    120

_symmetry_Int_Tables_number  156
_chemical_formula_structural  Te2Mo3WSe2S4
_chemical_formula_sum  Te2Mo3WSe2S4
_cell_volume  329.0725934973392
_cell_formula_units_Z  1
loop_
  _symmetry_equiv_pos_site_id
 _symmetry_equiv_pos_as_xyz
 1  'x, y, z'
loop_
 _atom_site_type_symbol
 _atom_site_label
 _atom_site_symmetry_multiplicity
 _atom_site_fract_x
 _atom_site_fract_y
 _atom_site_fract_z
 _atom_site_fract_occupancy
 Mo  Mo1  1  0.33320  0.66640  0.09997  1
 Mo  Mo2  1  0.66664  0.33328  0.27726  1
 Mo  Mo3  1  0.66676  0.33352  0.66429  1
 S  S1  1  0.33333  0.66667  0.32138  1
 S  S2  1  0.66652  0.33304  0.05585  1
 S  S3  1  0.66669  0.33339  0.14412  1
 S  S4  1  0.33328  0.66655  0.23311  1
 Se  Se1  1  0.66672  0.33344  0.41267  1
 Se  Se2  1  0.66669  0.33338  0.51018  1
 Te  Te1  1  0.33348  0.66696  0.71953  1
 Te  Te2  1  0.33332  0.66665  0.60896  1
 W  W1  1  0.33337  0.66674  0.46143  1
