CIF file written using JARVIS-Tools package.
data_YbFeGe
_symmetry_space_group_name_H-M  'C2/m'
_cell_length_a       3.90274
_cell_length_b       5.64635
_cell_length_c       6.03685
_cell_angle_alpha    74.737
_cell_angle_beta     71.1408
_cell_angle_gamma    69.7817

_symmetry_Int_Tables_number  12
_chemical_formula_structural  YbFeGe
_chemical_formula_sum  Yb2Fe2Ge2
_cell_volume  116.39813488932347
_cell_formula_units_Z  2
loop_
  _symmetry_equiv_pos_site_id
 _symmetry_equiv_pos_as_xyz
 1  'x, y, z'
loop_
 _atom_site_type_symbol
 _atom_site_label
 _atom_site_symmetry_multiplicity
 _atom_site_fract_x
 _atom_site_fract_y
 _atom_site_fract_z
 _atom_site_fract_occupancy
 Fe  Fe1  1  0.22225  0.13036  0.42515  1
 Fe  Fe2  1  0.77775  0.86964  0.57485  1
 Ge  Ge1  1  0.15925  0.86549  0.81602  1
 Ge  Ge2  1  0.84075  0.13451  0.18398  1
 Yb  Yb1  1  0.55231  0.68147  0.21390  1
 Yb  Yb2  1  0.44769  0.31853  0.78610  1
