CIF file written using JARVIS-Tools package.
data_Mg3Si8Ir3
_symmetry_space_group_name_H-M  'F-43m'
_cell_length_a       8.71114
_cell_length_b       8.71114
_cell_length_c       8.71115
_cell_angle_alpha    60
_cell_angle_beta     60
_cell_angle_gamma    60

_symmetry_Int_Tables_number  216
_chemical_formula_structural  Mg3Si8Ir3
_chemical_formula_sum  Mg6Si6Ir6
_cell_volume  467.4239232523297
_cell_formula_units_Z  2
loop_
  _symmetry_equiv_pos_site_id
 _symmetry_equiv_pos_as_xyz
 1  'x, y, z'
loop_
 _atom_site_type_symbol
 _atom_site_label
 _atom_site_symmetry_multiplicity
 _atom_site_fract_x
 _atom_site_fract_y
 _atom_site_fract_z
 _atom_site_fract_occupancy
 Ir  Ir1  1  0.74504  0.25496  0.25496  1
 Ir  Ir2  1  0.25496  0.25496  0.74504  1
 Ir  Ir3  1  0.74504  0.74504  0.25496  1
 Ir  Ir4  1  0.25496  0.74504  0.25496  1
 Ir  Ir5  1  0.25496  0.74504  0.74504  1
 Ir  Ir6  1  0.74504  0.25496  0.74504  1
 Mg  Mg1  1  0.34999  0.34999  0.34999  1
 Mg  Mg2  1  0.34999  0.95002  0.34999  1
 Mg  Mg3  1  0.95002  0.34999  0.34999  1
 Mg  Mg4  1  0.00000  0.00000  0.00000  1
 Mg  Mg5  1  0.34999  0.34999  0.95002  1
 Mg  Mg6  1  0.75000  0.75000  0.75000  1
 Si  Si1  1  0.66742  0.38914  0.97172  1
 Si  Si2  1  0.97172  0.97172  0.38914  1
 Si  Si3  1  0.57421  0.57421  0.27738  1
 Si  Si4  1  0.38914  0.66742  0.97172  1
 Si  Si5  1  0.97172  0.38914  0.97172  1
 Si  Si6  1  0.66742  0.97172  0.97172  1
 Si  Si7  1  0.66742  0.97172  0.38914  1
 Si  Si8  1  0.97172  0.97172  0.66742  1
 Si  Si9  1  0.97172  0.38914  0.66742  1
 Si  Si10  1  0.97172  0.66742  0.97172  1
 Si  Si11  1  0.97172  0.66742  0.38914  1
 Si  Si12  1  0.38914  0.97172  0.66742  1
 Si  Si13  1  0.38914  0.97172  0.97172  1
 Si  Si14  1  0.57421  0.27738  0.57421  1
 Si  Si15  1  0.57421  0.57421  0.57421  1
 Si  Si16  1  0.27738  0.57421  0.57421  1
