CIF file written using JARVIS-Tools package.
data_Pr5NiPb3
_symmetry_space_group_name_H-M  'P6_3/mcm'
_cell_length_a       9.52828
_cell_length_b       9.52828
_cell_length_c       6.96712
_cell_angle_alpha    90
_cell_angle_beta     90
_cell_angle_gamma    120

_symmetry_Int_Tables_number  193
_chemical_formula_structural  Pr5NiPb3
_chemical_formula_sum  Pr0Ni2Pb6
_cell_volume  547.788039657009
_cell_formula_units_Z  2
loop_
  _symmetry_equiv_pos_site_id
 _symmetry_equiv_pos_as_xyz
 1  'x, y, z'
loop_
 _atom_site_type_symbol
 _atom_site_label
 _atom_site_symmetry_multiplicity
 _atom_site_fract_x
 _atom_site_fract_y
 _atom_site_fract_z
 _atom_site_fract_occupancy
 Ni  Ni1  1  0.00000  0.00000  0.50000  1
 Ni  Ni2  1  0.00000  0.00000  0.00000  1
 Pb  Pb1  1  0.60200  0.60200  0.75000  1
 Pb  Pb2  1  0.60200  0.00000  0.25000  1
 Pb  Pb3  1  0.39800  -0.00000  0.75000  1
 Pb  Pb4  1  0.39800  0.39800  0.25000  1
 Pb  Pb5  1  0.00000  0.60200  0.25000  1
 Pb  Pb6  1  -0.00000  0.39800  0.75000  1
 Pr  Pr1  1  0.24235  0.24235  0.75000  1
 Pr  Pr2  1  0.24235  0.00000  0.25000  1
 Pr  Pr3  1  0.66667  0.33333  0.50000  1
 Pr  Pr4  1  0.33333  0.66667  0.00000  1
 Pr  Pr5  1  0.75765  -0.00000  0.75000  1
 Pr  Pr6  1  0.75765  0.75765  0.25000  1
 Pr  Pr7  1  0.00000  0.24235  0.25000  1
 Pr  Pr8  1  0.66667  0.33333  0.00000  1
 Pr  Pr9  1  0.33333  0.66667  0.50000  1
 Pr  Pr10  1  -0.00000  0.75765  0.75000  1
