CIF file written using JARVIS-Tools package.
data_Tm3Al2
_symmetry_space_group_name_H-M  'P4_2/mnm'
_cell_length_a       8.09406
_cell_length_b       8.09406
_cell_length_c       7.47279
_cell_angle_alpha    90
_cell_angle_beta     90
_cell_angle_gamma    90

_symmetry_Int_Tables_number  136
_chemical_formula_structural  Tm3Al2
_chemical_formula_sum  Tm2Al8
_cell_volume  489.5705732733357
_cell_formula_units_Z  4
loop_
  _symmetry_equiv_pos_site_id
 _symmetry_equiv_pos_as_xyz
 1  'x, y, z'
loop_
 _atom_site_type_symbol
 _atom_site_label
 _atom_site_symmetry_multiplicity
 _atom_site_fract_x
 _atom_site_fract_y
 _atom_site_fract_z
 _atom_site_fract_occupancy
 Al  Al1  1  0.61983  0.38017  0.69647  1
 Al  Al2  1  0.88017  0.88017  0.80353  1
 Al  Al3  1  0.61983  0.38017  0.30353  1
 Al  Al4  1  0.38017  0.61983  0.30353  1
 Al  Al5  1  0.88017  0.88017  0.19647  1
 Al  Al6  1  0.11983  0.11983  0.19647  1
 Al  Al7  1  0.38017  0.61983  0.69647  1
 Al  Al8  1  0.11983  0.11983  0.80353  1
 Tm  Tm1  1  0.65011  0.65011  0.00000  1
 Tm  Tm2  1  0.00000  0.50000  0.25000  1
 Tm  Tm3  1  0.50000  0.00000  0.25000  1
 Tm  Tm4  1  0.34989  0.34989  0.00000  1
 Tm  Tm5  1  0.20316  0.79684  0.00000  1
 Tm  Tm6  1  0.15011  0.84989  0.50000  1
 Tm  Tm7  1  0.84989  0.15011  0.50000  1
 Tm  Tm8  1  0.79684  0.20316  0.00000  1
 Tm  Tm9  1  0.70316  0.70316  0.50000  1
 Tm  Tm10  1  0.29684  0.29684  0.50000  1
 Tm  Tm11  1  0.50000  0.00000  0.75000  1
 Tm  Tm12  1  0.00000  0.50000  0.75000  1
