CIF file written using JARVIS-Tools package.
data_Ti5Re24
_symmetry_space_group_name_H-M  'I-43m'
_cell_length_a       8.37311
_cell_length_b       8.37311
_cell_length_c       8.3731
_cell_angle_alpha    109.471
_cell_angle_beta     109.471
_cell_angle_gamma    109.471

_symmetry_Int_Tables_number  217
_chemical_formula_structural  Ti5Re24
_chemical_formula_sum  Ti5Re24
_cell_volume  451.8951704477616
_cell_formula_units_Z  1
loop_
  _symmetry_equiv_pos_site_id
 _symmetry_equiv_pos_as_xyz
 1  'x, y, z'
loop_
 _atom_site_type_symbol
 _atom_site_label
 _atom_site_symmetry_multiplicity
 _atom_site_fract_x
 _atom_site_fract_y
 _atom_site_fract_z
 _atom_site_fract_occupancy
 Re  Re1  1  0.37574  0.37574  0.18292  1
 Re  Re2  1  0.40119  0.40119  0.71800  1
 Re  Re3  1  0.59881  0.31681  0.00000  1
 Re  Re4  1  0.31681  0.59881  -0.00000  1
 Re  Re5  1  0.00000  0.31681  0.59881  1
 Re  Re6  1  0.28200  0.68319  0.68319  1
 Re  Re7  1  0.68319  0.28200  0.68319  1
 Re  Re8  1  0.31681  0.00000  0.59881  1
 Re  Re9  1  0.59881  -0.00000  0.31681  1
 Re  Re10  1  -0.00000  0.59881  0.31681  1
 Re  Re11  1  0.37574  0.18292  0.37574  1
 Re  Re12  1  0.71800  0.40119  0.40119  1
 Re  Re13  1  0.68319  0.68319  0.28200  1
 Re  Re14  1  0.40119  0.71800  0.40119  1
 Re  Re15  1  0.19282  0.19282  0.81708  1
 Re  Re16  1  0.80718  0.62426  -0.00000  1
 Re  Re17  1  0.00000  0.80718  0.62426  1
 Re  Re18  1  0.81708  0.19282  0.19282  1
 Re  Re19  1  0.19282  0.81708  0.19282  1
 Re  Re20  1  0.80718  0.00000  0.62426  1
 Re  Re21  1  0.62426  -0.00000  0.80718  1
 Re  Re22  1  -0.00000  0.62426  0.80718  1
 Re  Re23  1  0.18292  0.37574  0.37574  1
 Re  Re24  1  0.62426  0.80718  0.00000  1
 Ti  Ti1  1  0.00000  0.00000  0.36606  1
 Ti  Ti2  1  -0.00000  0.36606  -0.00000  1
 Ti  Ti3  1  0.36606  -0.00000  0.00000  1
 Ti  Ti4  1  0.63394  0.63394  0.63394  1
 Ti  Ti5  1  0.00000  0.00000  0.00000  1
