CIF file written using JARVIS-Tools package.
data_CdCu2O3
_symmetry_space_group_name_H-M  'Pmmn'
_cell_length_a       3.65347
_cell_length_b       4.03594
_cell_length_c       9.92982
_cell_angle_alpha    90
_cell_angle_beta     90
_cell_angle_gamma    90

_symmetry_Int_Tables_number  59
_chemical_formula_structural  CdCu2O3
_chemical_formula_sum  Cd2Cu4O6
_cell_volume  146.41676854846443
_cell_formula_units_Z  2
loop_
  _symmetry_equiv_pos_site_id
 _symmetry_equiv_pos_as_xyz
 1  'x, y, z'
loop_
 _atom_site_type_symbol
 _atom_site_label
 _atom_site_symmetry_multiplicity
 _atom_site_fract_x
 _atom_site_fract_y
 _atom_site_fract_z
 _atom_site_fract_occupancy
 Cd  Cd1  1  0.32731  0.00000  0.50000  1
 Cd  Cd2  1  0.67269  0.50000  0.00000  1
 Cu  Cu1  1  0.15404  0.00000  0.83558  1
 Cu  Cu2  1  0.15404  0.00000  0.16442  1
 Cu  Cu3  1  0.84596  0.50000  0.33558  1
 Cu  Cu4  1  0.84596  0.50000  0.66442  1
 O  O1  1  0.42295  0.00000  0.00000  1
 O  O2  1  0.88557  0.00000  0.33055  1
 O  O3  1  0.88557  0.00000  0.66945  1
 O  O4  1  0.57705  0.50000  0.50000  1
 O  O5  1  0.11443  0.50000  0.83055  1
 O  O6  1  0.11443  0.50000  0.16945  1
