CIF file written using JARVIS-Tools package.
data_Tl5Se2I
_symmetry_space_group_name_H-M  'I4/mcm'
_cell_length_a       8.76393
_cell_length_b       8.76393
_cell_length_c       9.25221
_cell_angle_alpha    118.269
_cell_angle_beta     118.269
_cell_angle_gamma    90

_symmetry_Int_Tables_number  140
_chemical_formula_structural  Tl5Se2I
_chemical_formula_sum  Tl0Se4I2
_cell_volume  527.6779119098024
_cell_formula_units_Z  2
loop_
  _symmetry_equiv_pos_site_id
 _symmetry_equiv_pos_as_xyz
 1  'x, y, z'
loop_
 _atom_site_type_symbol
 _atom_site_label
 _atom_site_symmetry_multiplicity
 _atom_site_fract_x
 _atom_site_fract_y
 _atom_site_fract_z
 _atom_site_fract_occupancy
 I  I1  1  0.75000  0.75000  0.50000  1
 I  I2  1  0.25000  0.25000  0.50000  1
 Se  Se1  1  0.83920  0.33920  0.00000  1
 Se  Se2  1  0.66080  0.83920  0.00000  1
 Se  Se3  1  0.33920  0.16080  -0.00000  1
 Se  Se4  1  0.16080  0.66080  -0.00000  1
 Tl  Tl1  1  0.99492  0.78322  0.27815  1
 Tl  Tl2  1  0.78322  0.28322  0.27815  1
 Tl  Tl3  1  0.49492  0.99492  0.27815  1
 Tl  Tl4  1  0.21678  0.71678  0.72185  1
 Tl  Tl5  1  0.28322  0.49492  0.27815  1
 Tl  Tl6  1  0.00508  0.21678  0.72185  1
 Tl  Tl7  1  0.71678  0.50508  0.72185  1
 Tl  Tl8  1  0.50508  0.00508  0.72185  1
 Tl  Tl9  1  0.50000  0.50000  0.00000  1
 Tl  Tl10  1  0.00000  0.00000  0.00000  1
