CIF file written using JARVIS-Tools package.
data_Na2Mn2Se3
_symmetry_space_group_name_H-M  'C2/c'
_cell_length_a       7.24308
_cell_length_b       10.404
_cell_length_c       10.404
_cell_angle_alpha    84.3341
_cell_angle_beta     69.9292
_cell_angle_gamma    69.9293

_symmetry_Int_Tables_number  15
_chemical_formula_structural  Na2Mn2Se3
_chemical_formula_sum  Na8Mn8Se2
_cell_volume  691.5125487380413
_cell_formula_units_Z  4
loop_
  _symmetry_equiv_pos_site_id
 _symmetry_equiv_pos_as_xyz
 1  'x, y, z'
loop_
 _atom_site_type_symbol
 _atom_site_label
 _atom_site_symmetry_multiplicity
 _atom_site_fract_x
 _atom_site_fract_y
 _atom_site_fract_z
 _atom_site_fract_occupancy
 Mn  Mn1  1  0.25804  0.55488  0.08222  1
 Mn  Mn2  1  0.74196  0.44512  0.91778  1
 Mn  Mn3  1  0.24196  0.91778  0.44512  1
 Mn  Mn4  1  0.75804  0.08222  0.55488  1
 Mn  Mn5  1  0.79691  0.36584  0.21357  1
 Mn  Mn6  1  0.70309  0.78643  0.63416  1
 Mn  Mn7  1  0.29691  0.21357  0.36584  1
 Mn  Mn8  1  0.20309  0.63416  0.78643  1
 Na  Na1  1  0.35693  0.19113  0.02184  1
 Na  Na2  1  0.25000  0.56946  0.43054  1
 Na  Na3  1  0.75000  0.71965  0.28035  1
 Na  Na4  1  0.25000  0.28035  0.71965  1
 Na  Na5  1  0.85693  0.02184  0.19113  1
 Na  Na6  1  0.64307  0.80887  0.97816  1
 Na  Na7  1  0.14307  0.97816  0.80887  1
 Na  Na8  1  0.75000  0.43054  0.56946  1
 Se  Se1  1  0.43358  0.72032  0.57005  1
 Se  Se2  1  0.94876  0.85238  0.41370  1
 Se  Se3  1  0.55124  0.58630  0.14762  1
 Se  Se4  1  0.05124  0.14762  0.58630  1
 Se  Se5  1  0.44876  0.41370  0.85238  1
 Se  Se6  1  0.04943  0.77524  0.00376  1
 Se  Se7  1  0.54943  0.00376  0.77524  1
 Se  Se8  1  0.45057  0.99624  0.22476  1
 Se  Se9  1  0.56642  0.27968  0.42995  1
 Se  Se10  1  0.06642  0.42995  0.27968  1
 Se  Se11  1  0.95057  0.22476  0.99624  1
 Se  Se12  1  0.93358  0.57005  0.72032  1
