CIF file written using JARVIS-Tools package.
data_ZnS
_symmetry_space_group_name_H-M  'R3m'
_cell_length_a       15.9015
_cell_length_b       15.9015
_cell_length_c       15.9015
_cell_angle_alpha    13.8578
_cell_angle_beta     13.8578
_cell_angle_gamma    13.8578

_symmetry_Int_Tables_number  160
_chemical_formula_structural  ZnS
_chemical_formula_sum  Zn5S5
_cell_volume  200.73301923063946
_cell_formula_units_Z  5
loop_
  _symmetry_equiv_pos_site_id
 _symmetry_equiv_pos_as_xyz
 1  'x, y, z'
loop_
 _atom_site_type_symbol
 _atom_site_label
 _atom_site_symmetry_multiplicity
 _atom_site_fract_x
 _atom_site_fract_y
 _atom_site_fract_z
 _atom_site_fract_occupancy
 S  S1  1  0.05003  0.05003  0.05003  1
 S  S2  1  0.78320  0.78320  0.78320  1
 S  S3  1  0.64998  0.64998  0.64998  1
 S  S4  1  0.51654  0.51654  0.51654  1
 S  S5  1  0.91659  0.91659  0.91659  1
 Zn  Zn1  1  0.60009  0.60009  0.60009  1
 Zn  Zn2  1  0.86671  0.86671  0.86671  1
 Zn  Zn3  1  0.46664  0.46664  0.46664  1
 Zn  Zn4  1  0.00014  0.00014  0.00014  1
 Zn  Zn5  1  0.73341  0.73341  0.73341  1
