CIF file written using JARVIS-Tools package.
data_TeMoS
_symmetry_space_group_name_H-M  'Cm'
_cell_length_a       3.37856
_cell_length_b       8.86064
_cell_length_c       14.4344
_cell_angle_alpha    77.4833
_cell_angle_beta     83.2791
_cell_angle_gamma    79.0094

_symmetry_Int_Tables_number  8
_chemical_formula_structural  TeMoS
_chemical_formula_sum  Te6Mo6S6
_cell_volume  412.8090336594422
_cell_formula_units_Z  6
loop_
  _symmetry_equiv_pos_site_id
 _symmetry_equiv_pos_as_xyz
 1  'x, y, z'
loop_
 _atom_site_type_symbol
 _atom_site_label
 _atom_site_symmetry_multiplicity
 _atom_site_fract_x
 _atom_site_fract_y
 _atom_site_fract_z
 _atom_site_fract_occupancy
 Mo  Mo1  1  0.18813  0.87354  0.75023  1
 Mo  Mo2  1  0.13861  0.47263  0.25013  1
 Mo  Mo3  1  0.53463  0.18071  0.75007  1
 Mo  Mo4  1  0.80949  0.13426  0.24674  1
 Mo  Mo5  1  0.86182  0.52623  0.75016  1
 Mo  Mo6  1  0.46720  0.81294  0.25264  1
 S  S1  1  0.40048  0.05964  0.13937  1
 S  S2  1  0.67696  0.00619  0.63991  1
 S  S3  1  0.60284  0.93389  0.86045  1
 S  S4  1  0.05866  0.73415  0.14851  1
 S  S5  1  0.32091  0.00021  0.35794  1
 S  S6  1  0.66321  0.32114  0.35242  1
 Te  Te1  1  0.25679  0.60411  0.88234  1
 Te  Te2  1  0.93230  0.25153  0.88389  1
 Te  Te3  1  0.02214  0.33959  0.61616  1
 Te  Te4  1  0.73964  0.40790  0.11281  1
 Te  Te5  1  0.98076  0.65032  0.38813  1
 Te  Te6  1  0.34544  0.69102  0.61812  1
