CIF file written using JARVIS-Tools package.
data_Al3Pt2
_symmetry_space_group_name_H-M  'P-3m1'
_cell_length_a       4.10804
_cell_length_b       4.10804
_cell_length_c       11.3453
_cell_angle_alpha    90
_cell_angle_beta     90
_cell_angle_gamma    120

_symmetry_Int_Tables_number  164
_chemical_formula_structural  Al3Pt2
_chemical_formula_sum  Al6Pt4
_cell_volume  165.81181181862755
_cell_formula_units_Z  2
loop_
  _symmetry_equiv_pos_site_id
 _symmetry_equiv_pos_as_xyz
 1  'x, y, z'
loop_
 _atom_site_type_symbol
 _atom_site_label
 _atom_site_symmetry_multiplicity
 _atom_site_fract_x
 _atom_site_fract_y
 _atom_site_fract_z
 _atom_site_fract_occupancy
 Al  Al1  1  0.33333  0.66667  0.33359  1
 Al  Al2  1  0.66667  0.33333  0.66641  1
 Al  Al3  1  0.00000  0.00000  0.50000  1
 Al  Al4  1  0.00000  0.00000  0.00000  1
 Al  Al5  1  0.00000  0.00000  0.77687  1
 Al  Al6  1  0.00000  0.00000  0.22313  1
 Pt  Pt1  1  0.33333  0.66667  0.58949  1
 Pt  Pt2  1  0.33333  0.66667  0.10683  1
 Pt  Pt3  1  0.66667  0.33333  0.41051  1
 Pt  Pt4  1  0.66667  0.33333  0.89317  1
