CIF file written using JARVIS-Tools package.
data_K2SnTe3
_symmetry_space_group_name_H-M  'Cmce'
_cell_length_a       8.63531
_cell_length_b       8.67987
_cell_length_c       12.3577
_cell_angle_alpha    90
_cell_angle_beta     110.45
_cell_angle_gamma    90

_symmetry_Int_Tables_number  64
_chemical_formula_structural  K2SnTe3
_chemical_formula_sum  K8Sn4Te2
_cell_volume  867.8788160324087
_cell_formula_units_Z  4
loop_
  _symmetry_equiv_pos_site_id
 _symmetry_equiv_pos_as_xyz
 1  'x, y, z'
loop_
 _atom_site_type_symbol
 _atom_site_label
 _atom_site_symmetry_multiplicity
 _atom_site_fract_x
 _atom_site_fract_y
 _atom_site_fract_z
 _atom_site_fract_occupancy
 K  K1  1  0.07776  0.00000  0.15551  1
 K  K2  1  0.42224  0.50000  0.84449  1
 K  K3  1  0.92224  0.00000  0.84449  1
 K  K4  1  0.57776  0.50000  0.15551  1
 K  K5  1  0.23460  0.00000  0.46920  1
 K  K6  1  0.73460  0.50000  0.46920  1
 K  K7  1  0.26540  0.50000  0.53080  1
 K  K8  1  0.76540  0.00000  0.53080  1
 Sn  Sn1  1  0.41467  0.00000  0.82933  1
 Sn  Sn2  1  0.08533  0.50000  0.17067  1
 Sn  Sn3  1  0.58533  0.00000  0.17067  1
 Sn  Sn4  1  0.91467  0.50000  0.82933  1
 Te  Te1  1  0.32847  0.17178  -0.00000  1
 Te  Te2  1  0.67153  0.82822  0.00000  1
 Te  Te3  1  0.34176  0.30992  0.30290  1
 Te  Te4  1  0.53886  0.19008  0.69710  1
 Te  Te5  1  0.15824  0.80992  0.69710  1
 Te  Te6  1  0.96114  0.69008  0.30290  1
 Te  Te7  1  0.65824  0.69008  0.69710  1
 Te  Te8  1  0.46114  0.80992  0.30290  1
 Te  Te9  1  0.84176  0.19008  0.30290  1
 Te  Te10  1  0.03886  0.30992  0.69710  1
 Te  Te11  1  0.82847  0.32822  -0.00000  1
 Te  Te12  1  0.17153  0.67178  0.00000  1
