CIF file written using JARVIS-Tools package.
data_BaZrSe3
_symmetry_space_group_name_H-M  'Pnma'
_cell_length_a       4.05703
_cell_length_b       9.0968
_cell_length_c       15.0565
_cell_angle_alpha    90
_cell_angle_beta     90
_cell_angle_gamma    90

_symmetry_Int_Tables_number  62
_chemical_formula_structural  BaZrSe3
_chemical_formula_sum  Ba4Zr4Se2
_cell_volume  555.6734631242205
_cell_formula_units_Z  4
loop_
  _symmetry_equiv_pos_site_id
 _symmetry_equiv_pos_as_xyz
 1  'x, y, z'
loop_
 _atom_site_type_symbol
 _atom_site_label
 _atom_site_symmetry_multiplicity
 _atom_site_fract_x
 _atom_site_fract_y
 _atom_site_fract_z
 _atom_site_fract_occupancy
 Ba  Ba1  1  0.75000  0.06813  0.32598  1
 Ba  Ba2  1  0.25000  0.93187  0.67402  1
 Ba  Ba3  1  0.75000  0.56813  0.17402  1
 Ba  Ba4  1  0.25000  0.43187  0.82598  1
 Se  Se1  1  0.75000  0.33230  0.99489  1
 Se  Se2  1  0.25000  0.78771  0.28577  1
 Se  Se3  1  0.75000  0.83230  0.50511  1
 Se  Se4  1  0.25000  0.16770  0.49489  1
 Se  Se5  1  0.25000  0.66770  0.00511  1
 Se  Se6  1  0.75000  0.97381  0.10615  1
 Se  Se7  1  0.25000  0.52619  0.60615  1
 Se  Se8  1  0.25000  0.28771  0.21423  1
 Se  Se9  1  0.25000  0.02619  0.89385  1
 Se  Se10  1  0.75000  0.71229  0.78577  1
 Se  Se11  1  0.75000  0.47381  0.39385  1
 Se  Se12  1  0.75000  0.21229  0.71423  1
 Zr  Zr1  1  0.75000  0.33645  0.55983  1
 Zr  Zr2  1  0.25000  0.66355  0.44017  1
 Zr  Zr3  1  0.75000  0.83645  0.94017  1
 Zr  Zr4  1  0.25000  0.16355  0.05983  1
