CIF file written using JARVIS-Tools package.
data_YFe4Cu3O12
_symmetry_space_group_name_H-M  'Im-3'
_cell_length_a       6.2572
_cell_length_b       6.25709
_cell_length_c       6.25722
_cell_angle_alpha    109.47
_cell_angle_beta     109.472
_cell_angle_gamma    109.472

_symmetry_Int_Tables_number  204
_chemical_formula_structural  YFe4Cu3O12
_chemical_formula_sum  YFe4Cu3O2
_cell_volume  188.585469259742
_cell_formula_units_Z  1
loop_
  _symmetry_equiv_pos_site_id
 _symmetry_equiv_pos_as_xyz
 1  'x, y, z'
loop_
 _atom_site_type_symbol
 _atom_site_label
 _atom_site_symmetry_multiplicity
 _atom_site_fract_x
 _atom_site_fract_y
 _atom_site_fract_z
 _atom_site_fract_occupancy
 Cu  Cu1  1  0.50000  1.00000  0.50000  1
 Cu  Cu2  1  0.50000  0.50000  0.00000  1
 Cu  Cu3  1  0.00000  0.50000  0.50000  1
 Fe  Fe1  1  0.50000  -0.00000  0.00000  1
 Fe  Fe2  1  0.00000  0.00000  0.50000  1
 Fe  Fe3  1  0.00000  0.50000  0.00000  1
 Fe  Fe4  1  0.50000  0.50000  0.50000  1
 O  O1  1  0.17734  0.29999  0.47733  1
 O  O2  1  0.82265  0.30000  0.12265  1
 O  O3  1  0.87735  0.17733  0.70002  1
 O  O4  1  0.82266  0.70001  0.52267  1
 O  O5  1  0.29998  0.47730  0.17733  1
 O  O6  1  0.17735  0.70000  0.87735  1
 O  O7  1  0.29999  0.12265  0.82266  1
 O  O8  1  0.70001  0.87735  0.17734  1
 O  O9  1  0.52267  0.82266  0.70001  1
 O  O10  1  0.47733  0.17734  0.29999  1
 O  O11  1  0.70002  0.52270  0.82267  1
 O  O12  1  0.12265  0.82266  0.29998  1
 Y  Y1  1  -0.00000  0.00000  0.00000  1
