CIF file written using JARVIS-Tools package.
data_Cr3AuO8
_symmetry_space_group_name_H-M  'C2/m'
_cell_length_a       5.0819
_cell_length_b       5.0819
_cell_length_c       7.81008
_cell_angle_alpha    82.4051
_cell_angle_beta     82.4051
_cell_angle_gamma    65.0185

_symmetry_Int_Tables_number  12
_chemical_formula_structural  Cr3AuO8
_chemical_formula_sum  Cr3AuO8
_cell_volume  180.5706231086931
_cell_formula_units_Z  1
loop_
  _symmetry_equiv_pos_site_id
 _symmetry_equiv_pos_as_xyz
 1  'x, y, z'
loop_
 _atom_site_type_symbol
 _atom_site_label
 _atom_site_symmetry_multiplicity
 _atom_site_fract_x
 _atom_site_fract_y
 _atom_site_fract_z
 _atom_site_fract_occupancy
 Au  Au1  1  0.00000  0.00000  0.00000  1
 Cr  Cr1  1  0.67033  0.67033  0.29844  1
 Cr  Cr2  1  0.32967  0.32967  0.70156  1
 Cr  Cr3  1  0.00000  0.00000  0.50000  1
 O  O1  1  0.30296  0.80829  0.32334  1
 O  O2  1  0.69704  0.19171  0.67666  1
 O  O3  1  0.78953  0.78953  0.44596  1
 O  O4  1  0.19171  0.69704  0.67666  1
 O  O5  1  0.21047  0.21047  0.55404  1
 O  O6  1  0.22763  0.22763  0.90202  1
 O  O7  1  0.80829  0.30296  0.32334  1
 O  O8  1  0.77237  0.77237  0.09798  1
