CIF file written using JARVIS-Tools package.
data_Hf2Fe
_symmetry_space_group_name_H-M  'Fd-3m'
_cell_length_a       8.44044
_cell_length_b       8.44044
_cell_length_c       8.44044
_cell_angle_alpha    60
_cell_angle_beta     60
_cell_angle_gamma    60

_symmetry_Int_Tables_number  227
_chemical_formula_structural  Hf2Fe
_chemical_formula_sum  Hf6Fe8
_cell_volume  425.186999344466
_cell_formula_units_Z  8
loop_
  _symmetry_equiv_pos_site_id
 _symmetry_equiv_pos_as_xyz
 1  'x, y, z'
loop_
 _atom_site_type_symbol
 _atom_site_label
 _atom_site_symmetry_multiplicity
 _atom_site_fract_x
 _atom_site_fract_y
 _atom_site_fract_z
 _atom_site_fract_occupancy
 Fe  Fe1  1  0.71726  0.71726  0.71726  1
 Fe  Fe2  1  0.65177  0.28274  0.28274  1
 Fe  Fe3  1  0.28274  0.65177  0.28274  1
 Fe  Fe4  1  0.34823  0.71726  0.71726  1
 Fe  Fe5  1  0.71726  0.34823  0.71726  1
 Fe  Fe6  1  0.71726  0.71726  0.34823  1
 Fe  Fe7  1  0.28274  0.28274  0.28274  1
 Fe  Fe8  1  0.28274  0.28274  0.65177  1
 Hf  Hf1  1  0.31290  0.93710  0.93710  1
 Hf  Hf2  1  0.50000  0.50000  0.50000  1
 Hf  Hf3  1  0.50000  0.50000  0.00000  1
 Hf  Hf4  1  0.00000  0.50000  0.50000  1
 Hf  Hf5  1  0.50000  0.00000  0.50000  1
 Hf  Hf6  1  0.93710  0.93710  0.31290  1
 Hf  Hf7  1  0.31290  0.31290  0.93710  1
 Hf  Hf8  1  0.93710  0.31290  0.31290  1
 Hf  Hf9  1  0.93710  0.31290  0.93710  1
 Hf  Hf10  1  0.31290  0.93710  0.31290  1
 Hf  Hf11  1  0.06290  0.68710  0.06290  1
 Hf  Hf12  1  0.06290  0.06290  0.68710  1
 Hf  Hf13  1  0.68710  0.68710  0.06290  1
 Hf  Hf14  1  0.68710  0.06290  0.68710  1
 Hf  Hf15  1  0.68710  0.06290  0.06290  1
 Hf  Hf16  1  0.06290  0.68710  0.68710  1
