CIF file written using JARVIS-Tools package.
data_Sn7Os3
_symmetry_space_group_name_H-M  'Im-3m'
_cell_length_a       8.25053
_cell_length_b       8.25053
_cell_length_c       8.25053
_cell_angle_alpha    109.471
_cell_angle_beta     109.471
_cell_angle_gamma    109.471

_symmetry_Int_Tables_number  229
_chemical_formula_structural  Sn7Os3
_chemical_formula_sum  Sn4Os6
_cell_volume  432.33784960289194
_cell_formula_units_Z  2
loop_
  _symmetry_equiv_pos_site_id
 _symmetry_equiv_pos_as_xyz
 1  'x, y, z'
loop_
 _atom_site_type_symbol
 _atom_site_label
 _atom_site_symmetry_multiplicity
 _atom_site_fract_x
 _atom_site_fract_y
 _atom_site_fract_z
 _atom_site_fract_occupancy
 Os  Os1  1  -0.00000  0.34360  0.34360  1
 Os  Os2  1  0.65640  0.65640  0.00000  1
 Os  Os3  1  0.34360  0.34360  -0.00000  1
 Os  Os4  1  0.00000  0.65640  0.65640  1
 Os  Os5  1  0.34360  -0.00000  0.34360  1
 Os  Os6  1  0.65640  0.00000  0.65640  1
 Sn  Sn1  1  0.32210  0.32210  0.32210  1
 Sn  Sn2  1  0.25000  0.75000  0.50000  1
 Sn  Sn3  1  0.75000  0.25000  0.50000  1
 Sn  Sn4  1  0.25000  0.50000  0.75000  1
 Sn  Sn5  1  0.50000  0.25000  0.75000  1
 Sn  Sn6  1  0.00000  0.00000  0.32210  1
 Sn  Sn7  1  0.32210  -0.00000  -0.00000  1
 Sn  Sn8  1  0.00000  0.32210  0.00000  1
 Sn  Sn9  1  -0.00000  0.67790  -0.00000  1
 Sn  Sn10  1  -0.00000  -0.00000  0.67790  1
 Sn  Sn11  1  0.67790  0.00000  0.00000  1
 Sn  Sn12  1  0.67790  0.67790  0.67790  1
 Sn  Sn13  1  0.50000  0.75000  0.25000  1
 Sn  Sn14  1  0.75000  0.50000  0.25000  1
