CIF file written using JARVIS-Tools package.
data_Dy5SbAu2
_symmetry_space_group_name_H-M  'I4/mcm'
_cell_length_a       7.35071
_cell_length_b       7.35071
_cell_length_c       10.0411
_cell_angle_alpha    111.471
_cell_angle_beta     111.471
_cell_angle_gamma    90

_symmetry_Int_Tables_number  140
_chemical_formula_structural  Dy5SbAu2
_chemical_formula_sum  Dy0Sb2Au4
_cell_volume  464.2015660869264
_cell_formula_units_Z  2
loop_
  _symmetry_equiv_pos_site_id
 _symmetry_equiv_pos_as_xyz
 1  'x, y, z'
loop_
 _atom_site_type_symbol
 _atom_site_label
 _atom_site_symmetry_multiplicity
 _atom_site_fract_x
 _atom_site_fract_y
 _atom_site_fract_z
 _atom_site_fract_occupancy
 Au  Au1  1  0.37156  0.12844  0.00000  1
 Au  Au2  1  0.62844  0.87156  -0.00000  1
 Au  Au3  1  0.87156  0.37156  0.00000  1
 Au  Au4  1  0.12844  0.62844  -0.00000  1
 Dy  Dy1  1  0.67046  0.17046  0.66723  1
 Dy  Dy2  1  0.17046  0.99677  0.66723  1
 Dy  Dy3  1  0.50323  0.32954  0.33277  1
 Dy  Dy4  1  0.49677  0.67046  0.66723  1
 Dy  Dy5  1  0.82954  0.00323  0.33277  1
 Dy  Dy6  1  0.00000  0.00000  0.00000  1
 Dy  Dy7  1  0.99677  0.49677  0.66723  1
 Dy  Dy8  1  0.50000  0.50000  0.00000  1
 Dy  Dy9  1  0.32954  0.82954  0.33277  1
 Dy  Dy10  1  0.00323  0.50323  0.33277  1
 Sb  Sb1  1  0.25000  0.25000  0.50000  1
 Sb  Sb2  1  0.75000  0.75000  0.50000  1
