CIF file written using JARVIS-Tools package.
data_Er5Ge3
_symmetry_space_group_name_H-M  'P6_3/mcm'
_cell_length_a       8.37416
_cell_length_b       8.37416
_cell_length_c       6.30655
_cell_angle_alpha    90
_cell_angle_beta     90
_cell_angle_gamma    120

_symmetry_Int_Tables_number  193
_chemical_formula_structural  Er5Ge3
_chemical_formula_sum  Er0Ge6
_cell_volume  383.0051310284856
_cell_formula_units_Z  2
loop_
  _symmetry_equiv_pos_site_id
 _symmetry_equiv_pos_as_xyz
 1  'x, y, z'
loop_
 _atom_site_type_symbol
 _atom_site_label
 _atom_site_symmetry_multiplicity
 _atom_site_fract_x
 _atom_site_fract_y
 _atom_site_fract_z
 _atom_site_fract_occupancy
 Er  Er1  1  0.24105  0.00000  0.25000  1
 Er  Er2  1  0.75895  -0.00000  0.75000  1
 Er  Er3  1  0.24105  0.24105  0.75000  1
 Er  Er4  1  0.00000  0.24105  0.25000  1
 Er  Er5  1  0.75895  0.75895  0.25000  1
 Er  Er6  1  -0.00000  0.75895  0.75000  1
 Er  Er7  1  0.33333  0.66667  0.50000  1
 Er  Er8  1  0.66667  0.33333  0.00000  1
 Er  Er9  1  0.66667  0.33333  0.50000  1
 Er  Er10  1  0.33333  0.66667  0.00000  1
 Ge  Ge1  1  -0.00000  0.60629  0.25000  1
 Ge  Ge2  1  0.60629  0.60629  0.75000  1
 Ge  Ge3  1  0.39371  0.00000  0.75000  1
 Ge  Ge4  1  0.60629  -0.00000  0.25000  1
 Ge  Ge5  1  0.39371  0.39371  0.25000  1
 Ge  Ge6  1  0.00000  0.39371  0.75000  1
