CIF file written using JARVIS-Tools package.
data_KSn2Br5
_symmetry_space_group_name_H-M  'I4/mcm'
_cell_length_a       8.33944
_cell_length_b       8.33944
_cell_length_c       9.24831
_cell_angle_alpha    116.799
_cell_angle_beta     116.799
_cell_angle_gamma    90

_symmetry_Int_Tables_number  140
_chemical_formula_structural  KSn2Br5
_chemical_formula_sum  K2Sn4Br0
_cell_volume  495.4808138296052
_cell_formula_units_Z  2
loop_
  _symmetry_equiv_pos_site_id
 _symmetry_equiv_pos_as_xyz
 1  'x, y, z'
loop_
 _atom_site_type_symbol
 _atom_site_label
 _atom_site_symmetry_multiplicity
 _atom_site_fract_x
 _atom_site_fract_y
 _atom_site_fract_z
 _atom_site_fract_occupancy
 Br  Br1  1  0.79895  0.29895  0.27966  1
 Br  Br2  1  0.20105  0.70105  0.72034  1
 Br  Br3  1  0.48071  0.98071  0.27966  1
 Br  Br4  1  0.51929  0.01929  0.72034  1
 Br  Br5  1  0.00000  0.00000  0.00000  1
 Br  Br6  1  0.50000  0.50000  0.00000  1
 Br  Br7  1  0.70105  0.51929  0.72034  1
 Br  Br8  1  0.29895  0.48071  0.27966  1
 Br  Br9  1  0.01929  0.20105  0.72034  1
 Br  Br10  1  0.98071  0.79895  0.27966  1
 K  K1  1  0.25000  0.25000  0.50000  1
 K  K2  1  0.75000  0.75000  0.50000  1
 Sn  Sn1  1  0.17085  0.67085  -0.00000  1
 Sn  Sn2  1  0.82915  0.32915  0.00000  1
 Sn  Sn3  1  0.67085  0.82915  -0.00000  1
 Sn  Sn4  1  0.32915  0.17085  0.00000  1
