CIF file written using JARVIS-Tools package.
data_KSn2Cl5
_symmetry_space_group_name_H-M  'I4/mcm'
_cell_length_a       7.97883
_cell_length_b       7.97882
_cell_length_c       8.82989
_cell_angle_alpha    116.86
_cell_angle_beta     116.86
_cell_angle_gamma    90

_symmetry_Int_Tables_number  140
_chemical_formula_structural  KSn2Cl5
_chemical_formula_sum  K2Sn4Cl0
_cell_volume  432.41313142684766
_cell_formula_units_Z  2
loop_
  _symmetry_equiv_pos_site_id
 _symmetry_equiv_pos_as_xyz
 1  'x, y, z'
loop_
 _atom_site_type_symbol
 _atom_site_label
 _atom_site_symmetry_multiplicity
 _atom_site_fract_x
 _atom_site_fract_y
 _atom_site_fract_z
 _atom_site_fract_occupancy
 Cl  Cl1  1  0.19884  0.69884  0.72339  1
 Cl  Cl2  1  0.47544  0.97544  0.27661  1
 Cl  Cl3  1  0.80116  0.30116  0.27661  1
 Cl  Cl4  1  0.97544  0.80116  0.27661  1
 Cl  Cl5  1  0.30116  0.47544  0.27661  1
 Cl  Cl6  1  0.02456  0.19884  0.72339  1
 Cl  Cl7  1  0.00000  0.00000  0.00000  1
 Cl  Cl8  1  0.50000  0.50000  -0.00000  1
 Cl  Cl9  1  0.52456  0.02456  0.72339  1
 Cl  Cl10  1  0.69884  0.52456  0.72339  1
 K  K1  1  0.25000  0.25000  0.50000  1
 K  K2  1  0.75000  0.75000  0.50000  1
 Sn  Sn1  1  0.32965  0.17035  0.00000  1
 Sn  Sn2  1  0.17035  0.67035  -0.00000  1
 Sn  Sn3  1  0.67035  0.82965  -0.00000  1
 Sn  Sn4  1  0.82965  0.32965  0.00000  1
