CIF file written using JARVIS-Tools package.
data_K2NaInSb2
_symmetry_space_group_name_H-M  'Cmce'
_cell_length_a       7.0229
_cell_length_b       10.8368
_cell_length_c       10.8368
_cell_angle_alpha    98.7626
_cell_angle_beta     90
_cell_angle_gamma    90

_symmetry_Int_Tables_number  64
_chemical_formula_structural  K2NaInSb2
_chemical_formula_sum  K8Na4In4Sb8
_cell_volume  815.1169897668193
_cell_formula_units_Z  4
loop_
  _symmetry_equiv_pos_site_id
 _symmetry_equiv_pos_as_xyz
 1  'x, y, z'
loop_
 _atom_site_type_symbol
 _atom_site_label
 _atom_site_symmetry_multiplicity
 _atom_site_fract_x
 _atom_site_fract_y
 _atom_site_fract_z
 _atom_site_fract_occupancy
 In  In1  1  0.50000  0.63240  0.63240  1
 In  In2  1  0.00000  0.86760  0.86760  1
 In  In3  1  0.50000  0.36760  0.36760  1
 In  In4  1  0.00000  0.13240  0.13240  1
 K  K1  1  0.75000  0.42294  0.07706  1
 K  K2  1  0.25000  0.07706  0.42294  1
 K  K3  1  0.25000  0.57706  0.92294  1
 K  K4  1  0.75000  0.92294  0.57706  1
 K  K5  1  0.77803  0.32686  0.67314  1
 K  K6  1  0.27803  0.17314  0.82686  1
 K  K7  1  0.22197  0.67314  0.32686  1
 K  K8  1  0.72197  0.82686  0.17314  1
 Na  Na1  1  0.50000  0.11883  0.11883  1
 Na  Na2  1  0.00000  0.38117  0.38117  1
 Na  Na3  1  0.50000  0.88117  0.88117  1
 Na  Na4  1  0.00000  0.61883  0.61883  1
 Sb  Sb1  1  0.20883  0.89293  0.10707  1
 Sb  Sb2  1  0.75000  0.64219  0.85781  1
 Sb  Sb3  1  0.25000  0.85781  0.64219  1
 Sb  Sb4  1  0.25000  0.35781  0.14219  1
 Sb  Sb5  1  0.75000  0.14219  0.35781  1
 Sb  Sb6  1  0.79117  0.10707  0.89293  1
 Sb  Sb7  1  0.29117  0.39293  0.60707  1
 Sb  Sb8  1  0.70883  0.60707  0.39293  1
