CIF file written using JARVIS-Tools package.
data_Ba4Os6ClO18
_symmetry_space_group_name_H-M  'I23'
_cell_length_a       8.19531
_cell_length_b       8.1953
_cell_length_c       8.1953
_cell_angle_alpha    109.471
_cell_angle_beta     109.471
_cell_angle_gamma    109.471

_symmetry_Int_Tables_number  197
_chemical_formula_structural  Ba4Os6ClO18
_chemical_formula_sum  Ba4Os6ClO8
_cell_volume  423.7143299459014
_cell_formula_units_Z  1
loop_
  _symmetry_equiv_pos_site_id
 _symmetry_equiv_pos_as_xyz
 1  'x, y, z'
loop_
 _atom_site_type_symbol
 _atom_site_label
 _atom_site_symmetry_multiplicity
 _atom_site_fract_x
 _atom_site_fract_y
 _atom_site_fract_z
 _atom_site_fract_occupancy
 Ba  Ba1  1  -0.00000  -0.00000  0.37079  1
 Ba  Ba2  1  0.37079  0.00000  -0.00000  1
 Ba  Ba3  1  0.62921  0.62921  0.62921  1
 Ba  Ba4  1  0.00000  0.37079  0.00000  1
 Cl  Cl1  1  0.00000  0.00000  0.00000  1
 O  O1  1  0.06865  0.69600  0.34584  1
 O  O2  1  0.72281  0.65416  0.35017  1
 O  O3  1  0.93135  0.27719  0.62735  1
 O  O4  1  0.33770  0.33770  -0.00000  1
 O  O5  1  0.65416  0.35017  0.72281  1
 O  O6  1  0.62735  0.93135  0.27719  1
 O  O7  1  0.34584  0.06865  0.69600  1
 O  O8  1  0.37265  0.64983  0.30400  1
 O  O9  1  0.00000  0.66230  0.66230  1
 O  O10  1  0.69600  0.34584  0.06865  1
 O  O11  1  0.66230  0.66230  0.00000  1
 O  O12  1  0.27719  0.62735  0.93135  1
 O  O13  1  0.66230  -0.00000  0.66230  1
 O  O14  1  0.30400  0.37265  0.64983  1
 O  O15  1  0.64983  0.30400  0.37265  1
 O  O16  1  0.35017  0.72281  0.65416  1
 O  O17  1  0.33770  0.00000  0.33770  1
 O  O18  1  -0.00000  0.33770  0.33770  1
 Os  Os1  1  0.50000  0.36526  0.86526  1
 Os  Os2  1  0.86526  0.50000  0.36526  1
 Os  Os3  1  0.13474  0.50000  0.63474  1
 Os  Os4  1  0.63474  0.13474  0.50000  1
 Os  Os5  1  0.50000  0.63474  0.13474  1
 Os  Os6  1  0.36526  0.86526  0.50000  1
