CIF file written using JARVIS-Tools package.
data_TlIn5Se7
_symmetry_space_group_name_H-M  'P2_1/m'
_cell_length_a       9.59163
_cell_length_b       4.12466
_cell_length_c       18.0392
_cell_angle_alpha    90
_cell_angle_beta     100.917
_cell_angle_gamma    90

_symmetry_Int_Tables_number  11
_chemical_formula_structural  TlIn5Se7
_chemical_formula_sum  Tl2In0Se4
_cell_volume  700.7548226162597
_cell_formula_units_Z  2
loop_
  _symmetry_equiv_pos_site_id
 _symmetry_equiv_pos_as_xyz
 1  'x, y, z'
loop_
 _atom_site_type_symbol
 _atom_site_label
 _atom_site_symmetry_multiplicity
 _atom_site_fract_x
 _atom_site_fract_y
 _atom_site_fract_z
 _atom_site_fract_occupancy
 In  In1  1  0.17103  0.75000  0.53392  1
 In  In2  1  0.85221  0.75000  0.04708  1
 In  In3  1  0.48342  0.75000  0.39726  1
 In  In4  1  0.56679  0.25000  0.12330  1
 In  In5  1  0.14779  0.25000  0.95292  1
 In  In6  1  0.51658  0.25000  0.60274  1
 In  In7  1  0.67973  0.75000  0.81317  1
 In  In8  1  0.32027  0.25000  0.18683  1
 In  In9  1  0.82897  0.25000  0.46608  1
 In  In10  1  0.43321  0.75000  0.87670  1
 Se  Se1  1  0.66340  0.25000  0.99316  1
 Se  Se2  1  0.67046  0.75000  0.53359  1
 Se  Se3  1  0.25754  0.25000  0.82141  1
 Se  Se4  1  0.32954  0.25000  0.46641  1
 Se  Se5  1  0.97055  0.75000  0.40836  1
 Se  Se6  1  0.62126  0.25000  0.34251  1
 Se  Se7  1  0.26112  0.75000  0.27289  1
 Se  Se8  1  0.74246  0.75000  0.17859  1
 Se  Se9  1  0.73888  0.25000  0.72711  1
 Se  Se10  1  0.37874  0.75000  0.65749  1
 Se  Se11  1  0.02945  0.25000  0.59164  1
 Se  Se12  1  0.05632  0.25000  0.09170  1
 Se  Se13  1  0.94368  0.75000  0.90830  1
 Se  Se14  1  0.33660  0.75000  0.00684  1
 Tl  Tl1  1  0.97737  0.25000  0.27220  1
 Tl  Tl2  1  0.02263  0.75000  0.72780  1
