CIF file written using JARVIS-Tools package.
data_NbWSe4
_symmetry_space_group_name_H-M  'Pmma'
_cell_length_a       3.40832
_cell_length_b       13.034
_cell_length_c       5.91031
_cell_angle_alpha    90
_cell_angle_beta     90.0001
_cell_angle_gamma    90

_symmetry_Int_Tables_number  51
_chemical_formula_structural  NbWSe4
_chemical_formula_sum  Nb2W2Se8
_cell_volume  262.5611708197798
_cell_formula_units_Z  2
loop_
  _symmetry_equiv_pos_site_id
 _symmetry_equiv_pos_as_xyz
 1  'x, y, z'
loop_
 _atom_site_type_symbol
 _atom_site_label
 _atom_site_symmetry_multiplicity
 _atom_site_fract_x
 _atom_site_fract_y
 _atom_site_fract_z
 _atom_site_fract_occupancy
 Nb  Nb1  1  0.99995  0.25000  0.32546  1
 Nb  Nb2  1  0.00005  0.75000  0.67454  1
 Se  Se1  1  0.00005  0.62375  0.32833  1
 Se  Se2  1  0.49995  0.11859  0.16273  1
 Se  Se3  1  0.49995  0.38141  0.16273  1
 Se  Se4  1  0.00005  0.87625  0.32833  1
 Se  Se5  1  0.50005  0.61859  0.83727  1
 Se  Se6  1  0.99995  0.12375  0.67167  1
 Se  Se7  1  0.99995  0.37625  0.67167  1
 Se  Se8  1  0.50005  0.88141  0.83727  1
 W  W1  1  0.50005  0.75000  0.15838  1
 W  W2  1  0.49995  0.25000  0.84162  1
