CIF file written using JARVIS-Tools package.
data_BeAl2O4
_symmetry_space_group_name_H-M  'Pnma'
_cell_length_a       4.46137
_cell_length_b       5.52377
_cell_length_c       9.4845
_cell_angle_alpha    90
_cell_angle_beta     90
_cell_angle_gamma    90

_symmetry_Int_Tables_number  62
_chemical_formula_structural  BeAl2O4
_chemical_formula_sum  Be4Al8O6
_cell_volume  233.73176968546778
_cell_formula_units_Z  4
loop_
  _symmetry_equiv_pos_site_id
 _symmetry_equiv_pos_as_xyz
 1  'x, y, z'
loop_
 _atom_site_type_symbol
 _atom_site_label
 _atom_site_symmetry_multiplicity
 _atom_site_fract_x
 _atom_site_fract_y
 _atom_site_fract_z
 _atom_site_fract_occupancy
 Al  Al1  1  0.99436  0.25000  0.72704  1
 Al  Al2  1  0.00564  0.75000  0.27296  1
 Al  Al3  1  0.49436  0.75000  0.77296  1
 Al  Al4  1  0.50564  0.25000  0.22704  1
 Al  Al5  1  0.00000  0.00000  0.00000  1
 Al  Al6  1  0.50000  0.00000  0.50000  1
 Al  Al7  1  0.50000  0.50000  0.50000  1
 Al  Al8  1  0.00000  0.50000  0.00000  1
 Be  Be1  1  0.06665  0.25000  0.40732  1
 Be  Be2  1  0.43335  0.25000  0.90732  1
 Be  Be3  1  0.93335  0.75000  0.59268  1
 Be  Be4  1  0.56665  0.75000  0.09268  1
 O  O1  1  0.24301  0.48415  0.33680  1
 O  O2  1  0.75699  0.51585  0.66320  1
 O  O3  1  0.24064  0.25000  0.56646  1
 O  O4  1  0.24301  0.01585  0.33680  1
 O  O5  1  0.74301  0.98415  0.16320  1
 O  O6  1  0.25699  0.01585  0.83680  1
 O  O7  1  0.25699  0.48415  0.83680  1
 O  O8  1  0.25936  0.25000  0.06646  1
 O  O9  1  0.71287  0.25000  0.40962  1
 O  O10  1  0.78713  0.25000  0.90962  1
 O  O11  1  0.28713  0.75000  0.59038  1
 O  O12  1  0.75936  0.75000  0.43354  1
 O  O13  1  0.75699  0.98415  0.66320  1
 O  O14  1  0.21287  0.75000  0.09038  1
 O  O15  1  0.74301  0.51585  0.16320  1
 O  O16  1  0.74064  0.75000  0.93354  1
