CIF file written using JARVIS-Tools package.
data_Nd2Si3Rh
_symmetry_space_group_name_H-M  'P6/mmm'
_cell_length_a       8.2847
_cell_length_b       8.2847
_cell_length_c       8.4226
_cell_angle_alpha    90
_cell_angle_beta     90
_cell_angle_gamma    120

_symmetry_Int_Tables_number  191
_chemical_formula_structural  Nd2Si3Rh
_chemical_formula_sum  Nd8Si2Rh4
_cell_volume  500.6460659754643
_cell_formula_units_Z  4
loop_
  _symmetry_equiv_pos_site_id
 _symmetry_equiv_pos_as_xyz
 1  'x, y, z'
loop_
 _atom_site_type_symbol
 _atom_site_label
 _atom_site_symmetry_multiplicity
 _atom_site_fract_x
 _atom_site_fract_y
 _atom_site_fract_z
 _atom_site_fract_occupancy
 Nd  Nd1  1  -0.00002  0.49999  0.75000  1
 Nd  Nd2  1  0.49999  -0.00002  0.25000  1
 Nd  Nd3  1  0.49999  0.50001  0.25000  1
 Nd  Nd4  1  0.00002  0.50001  0.25000  1
 Nd  Nd5  1  0.50001  0.00002  0.75000  1
 Nd  Nd6  1  0.50001  0.49999  0.75000  1
 Nd  Nd7  1  0.00000  0.00000  0.75000  1
 Nd  Nd8  1  0.00000  0.00000  0.25000  1
 Rh  Rh1  1  0.66667  0.33333  0.00000  1
 Rh  Rh2  1  0.33333  0.66667  0.50000  1
 Rh  Rh3  1  0.33333  0.66667  -0.00000  1
 Rh  Rh4  1  0.66667  0.33333  0.50000  1
 Si  Si1  1  0.16693  0.33387  -0.00001  1
 Si  Si2  1  0.83307  0.66613  0.00001  1
 Si  Si3  1  0.16693  0.33387  0.50001  1
 Si  Si4  1  0.33387  0.16693  0.00001  1
 Si  Si5  1  0.33387  0.16693  0.49999  1
 Si  Si6  1  0.83307  0.66613  0.49999  1
 Si  Si7  1  0.83307  0.16693  0.49999  1
 Si  Si8  1  0.83307  0.16693  0.00001  1
 Si  Si9  1  0.16693  0.83307  0.50001  1
 Si  Si10  1  0.16693  0.83307  -0.00001  1
 Si  Si11  1  0.66613  0.83307  0.50001  1
 Si  Si12  1  0.66613  0.83307  -0.00001  1
