CIF file written using JARVIS-Tools package.
data_Rb3Nb2Br9
_symmetry_space_group_name_H-M  'P6_3/mmc'
_cell_length_a       7.60393
_cell_length_b       7.60393
_cell_length_c       17.7589
_cell_angle_alpha    90
_cell_angle_beta     90
_cell_angle_gamma    120

_symmetry_Int_Tables_number  194
_chemical_formula_structural  Rb3Nb2Br9
_chemical_formula_sum  Rb6Nb4Br8
_cell_volume  889.2512066523532
_cell_formula_units_Z  2
loop_
  _symmetry_equiv_pos_site_id
 _symmetry_equiv_pos_as_xyz
 1  'x, y, z'
loop_
 _atom_site_type_symbol
 _atom_site_label
 _atom_site_symmetry_multiplicity
 _atom_site_fract_x
 _atom_site_fract_y
 _atom_site_fract_z
 _atom_site_fract_occupancy
 Br  Br1  1  0.66122  0.83061  0.59048  1
 Br  Br2  1  0.02052  0.51026  0.25000  1
 Br  Br3  1  0.51026  0.02052  0.75000  1
 Br  Br4  1  0.51026  0.48974  0.75000  1
 Br  Br5  1  0.33878  0.16939  0.40952  1
 Br  Br6  1  0.48974  0.97948  0.25000  1
 Br  Br7  1  0.97948  0.48974  0.75000  1
 Br  Br8  1  0.33878  0.16939  0.09048  1
 Br  Br9  1  0.48974  0.51026  0.25000  1
 Br  Br10  1  0.16939  0.83061  0.59048  1
 Br  Br11  1  0.83061  0.66122  0.09048  1
 Br  Br12  1  0.66122  0.83061  0.90952  1
 Br  Br13  1  0.16939  0.33878  0.90952  1
 Br  Br14  1  0.83061  0.66122  0.40952  1
 Br  Br15  1  0.16939  0.83061  0.90952  1
 Br  Br16  1  0.83061  0.16939  0.40952  1
 Br  Br17  1  0.83061  0.16939  0.09048  1
 Br  Br18  1  0.16939  0.33878  0.59048  1
 Nb  Nb1  1  0.66667  0.33333  0.32651  1
 Nb  Nb2  1  0.33333  0.66667  0.82651  1
 Nb  Nb3  1  0.66667  0.33333  0.17349  1
 Nb  Nb4  1  0.33333  0.66667  0.67349  1
 Rb  Rb1  1  0.33333  0.66667  0.42933  1
 Rb  Rb2  1  0.66667  0.33333  0.92933  1
 Rb  Rb3  1  0.66667  0.33333  0.57067  1
 Rb  Rb4  1  0.33333  0.66667  0.07067  1
 Rb  Rb5  1  0.00000  0.00000  0.75000  1
 Rb  Rb6  1  0.00000  0.00000  0.25000  1
