CIF file written using JARVIS-Tools package.
data_NbW7Se16
_symmetry_space_group_name_H-M  'Pmm2'
_cell_length_a       3.3508
_cell_length_b       13.1229
_cell_length_c       11.6157
_cell_angle_alpha    90
_cell_angle_beta     90.0002
_cell_angle_gamma    90

_symmetry_Int_Tables_number  25
_chemical_formula_structural  NbW7Se16
_chemical_formula_sum  NbW7Se6
_cell_volume  510.7686035175418
_cell_formula_units_Z  1
loop_
  _symmetry_equiv_pos_site_id
 _symmetry_equiv_pos_as_xyz
 1  'x, y, z'
loop_
 _atom_site_type_symbol
 _atom_site_label
 _atom_site_symmetry_multiplicity
 _atom_site_fract_x
 _atom_site_fract_y
 _atom_site_fract_z
 _atom_site_fract_occupancy
 Nb  Nb1  1  0.49992  0.75000  0.91375  1
 Se  Se1  1  0.49992  0.62267  0.08690  1
 Se  Se2  1  0.00008  0.12249  0.16664  1
 Se  Se3  1  0.00008  0.37751  0.16664  1
 Se  Se4  1  0.49992  0.87733  0.08690  1
 Se  Se5  1  0.99992  0.62218  0.33558  1
 Se  Se6  1  0.99992  0.88037  0.82862  1
 Se  Se7  1  0.50008  0.37754  0.91674  1
 Se  Se8  1  0.50008  0.12246  0.91674  1
 Se  Se9  1  0.99992  0.61963  0.82862  1
 Se  Se10  1  0.49992  0.87779  0.58233  1
 Se  Se11  1  0.50008  0.12260  0.41665  1
 Se  Se12  1  0.00008  0.12258  0.66678  1
 Se  Se13  1  0.49992  0.62221  0.58233  1
 Se  Se14  1  0.99992  0.87782  0.33558  1
 Se  Se15  1  0.50008  0.37740  0.41665  1
 Se  Se16  1  0.00008  0.37742  0.66678  1
 W  W1  1  0.00008  0.25000  0.83344  1
 W  W2  1  0.99992  0.75000  0.66439  1
 W  W3  1  0.50008  0.25000  0.08335  1
 W  W4  1  0.99992  0.75000  0.17058  1
 W  W5  1  0.00008  0.25000  0.33323  1
 W  W6  1  0.49992  0.75000  0.41742  1
 W  W7  1  0.50008  0.25000  0.58336  1
