CIF file written using JARVIS-Tools package.
data_CaCd2
_symmetry_space_group_name_H-M  'P6_3/mmc'
_cell_length_a       6.01718
_cell_length_b       6.01718
_cell_length_c       9.57859
_cell_angle_alpha    90
_cell_angle_beta     90
_cell_angle_gamma    120

_symmetry_Int_Tables_number  194
_chemical_formula_structural  CaCd2
_chemical_formula_sum  Ca4Cd8
_cell_volume  300.3431091596376
_cell_formula_units_Z  4
loop_
  _symmetry_equiv_pos_site_id
 _symmetry_equiv_pos_as_xyz
 1  'x, y, z'
loop_
 _atom_site_type_symbol
 _atom_site_label
 _atom_site_symmetry_multiplicity
 _atom_site_fract_x
 _atom_site_fract_y
 _atom_site_fract_z
 _atom_site_fract_occupancy
 Ca  Ca1  1  0.33333  0.66667  0.05984  1
 Ca  Ca2  1  0.66667  0.33333  0.55984  1
 Ca  Ca3  1  0.66667  0.33333  0.94016  1
 Ca  Ca4  1  0.33333  0.66667  0.44016  1
 Cd  Cd1  1  0.00000  0.00000  0.00000  1
 Cd  Cd2  1  0.00000  0.00000  0.50000  1
 Cd  Cd3  1  0.34175  0.17088  0.25000  1
 Cd  Cd4  1  0.17088  0.34175  0.75000  1
 Cd  Cd5  1  0.17088  0.82912  0.75000  1
 Cd  Cd6  1  0.82912  0.17088  0.25000  1
 Cd  Cd7  1  0.82912  0.65825  0.25000  1
 Cd  Cd8  1  0.65825  0.82912  0.75000  1
