CIF file written using JARVIS-Tools package.
data_HgN
_symmetry_space_group_name_H-M  'P6_3mc'
_cell_length_a       3.5713
_cell_length_b       3.5713
_cell_length_c       6.25596
_cell_angle_alpha    90
_cell_angle_beta     90
_cell_angle_gamma    120

_symmetry_Int_Tables_number  186
_chemical_formula_structural  HgN
_chemical_formula_sum  Hg2N2
_cell_volume  69.09980356820289
_cell_formula_units_Z  2
loop_
  _symmetry_equiv_pos_site_id
 _symmetry_equiv_pos_as_xyz
 1  'x, y, z'
loop_
 _atom_site_type_symbol
 _atom_site_label
 _atom_site_symmetry_multiplicity
 _atom_site_fract_x
 _atom_site_fract_y
 _atom_site_fract_z
 _atom_site_fract_occupancy
 Hg  Hg1  1  0.33333  0.66667  0.01436  1
 Hg  Hg2  1  0.66667  0.33333  0.51436  1
 N  N1  1  0.33333  0.66667  0.36064  1
 N  N2  1  0.66667  0.33333  0.86064  1
