CIF file written using JARVIS-Tools package.
data_Tb2Se3
_symmetry_space_group_name_H-M  'Pnma'
_cell_length_a       4.03198
_cell_length_b       10.9724
_cell_length_c       11.1695
_cell_angle_alpha    90
_cell_angle_beta     90
_cell_angle_gamma    90

_symmetry_Int_Tables_number  62
_chemical_formula_structural  Tb2Se3
_chemical_formula_sum  Tb8Se2
_cell_volume  494.14326314925853
_cell_formula_units_Z  4
loop_
  _symmetry_equiv_pos_site_id
 _symmetry_equiv_pos_as_xyz
 1  'x, y, z'
loop_
 _atom_site_type_symbol
 _atom_site_label
 _atom_site_symmetry_multiplicity
 _atom_site_fract_x
 _atom_site_fract_y
 _atom_site_fract_z
 _atom_site_fract_occupancy
 Se  Se1  1  0.25000  0.55624  0.88101  1
 Se  Se2  1  0.25000  0.30317  0.72655  1
 Se  Se3  1  0.75000  0.05624  0.61899  1
 Se  Se4  1  0.75000  0.80317  0.77345  1
 Se  Se5  1  0.25000  0.19683  0.22655  1
 Se  Se6  1  0.75000  0.69683  0.27345  1
 Se  Se7  1  0.75000  0.37459  0.45511  1
 Se  Se8  1  0.75000  0.12541  0.95511  1
 Se  Se9  1  0.25000  0.87459  0.04489  1
 Se  Se10  1  0.25000  0.94376  0.38101  1
 Se  Se11  1  0.75000  0.44376  0.11899  1
 Se  Se12  1  0.25000  0.62541  0.54489  1
 Tb  Tb1  1  0.25000  0.50140  0.30601  1
 Tb  Tb2  1  0.75000  0.49860  0.69399  1
 Tb  Tb3  1  0.75000  0.00140  0.19399  1
 Tb  Tb4  1  0.25000  0.99860  0.80601  1
 Tb  Tb5  1  0.25000  0.31263  0.98680  1
 Tb  Tb6  1  0.75000  0.68737  0.01320  1
 Tb  Tb7  1  0.75000  0.81263  0.51320  1
 Tb  Tb8  1  0.25000  0.18737  0.48680  1
