CIF file written using JARVIS-Tools package.
data_Yb5Ag3
_symmetry_space_group_name_H-M  'I4/mcm'
_cell_length_a       7.78203
_cell_length_b       7.78203
_cell_length_c       9.02855
_cell_angle_alpha    115.529
_cell_angle_beta     115.529
_cell_angle_gamma    90

_symmetry_Int_Tables_number  140
_chemical_formula_structural  Yb5Ag3
_chemical_formula_sum  Yb0Ag6
_cell_volume  433.4790386665559
_cell_formula_units_Z  2
loop_
  _symmetry_equiv_pos_site_id
 _symmetry_equiv_pos_as_xyz
 1  'x, y, z'
loop_
 _atom_site_type_symbol
 _atom_site_label
 _atom_site_symmetry_multiplicity
 _atom_site_fract_x
 _atom_site_fract_y
 _atom_site_fract_z
 _atom_site_fract_occupancy
 Ag  Ag1  1  0.86980  0.63020  -0.00000  1
 Ag  Ag2  1  0.75000  0.75000  0.50000  1
 Ag  Ag3  1  0.13020  0.36980  0.00000  1
 Ag  Ag4  1  0.25000  0.25000  0.50000  1
 Ag  Ag5  1  0.63020  0.13020  0.00000  1
 Ag  Ag6  1  0.36980  0.86980  -0.00000  1
 Yb  Yb1  1  0.47723  0.31213  0.28935  1
 Yb  Yb2  1  0.68787  0.18787  0.71065  1
 Yb  Yb3  1  0.18787  0.02277  0.71065  1
 Yb  Yb4  1  0.02277  0.52277  0.71065  1
 Yb  Yb5  1  0.50000  0.50000  0.00000  1
 Yb  Yb6  1  0.81213  0.97723  0.28935  1
 Yb  Yb7  1  0.31213  0.81213  0.28935  1
 Yb  Yb8  1  0.52277  0.68787  0.71065  1
 Yb  Yb9  1  0.97723  0.47723  0.28935  1
 Yb  Yb10  1  0.00000  0.00000  0.00000  1
