CIF file written using JARVIS-Tools package.
data_NaSe2
_symmetry_space_group_name_H-M  'I-42d'
_cell_length_a       9.41356
_cell_length_b       9.41357
_cell_length_c       9.41356
_cell_angle_alpha    100.33
_cell_angle_beta     114.226
_cell_angle_gamma    114.226

_symmetry_Int_Tables_number  122
_chemical_formula_structural  NaSe2
_chemical_formula_sum  Na8Se6
_cell_volume  630.181643017115
_cell_formula_units_Z  8
loop_
  _symmetry_equiv_pos_site_id
 _symmetry_equiv_pos_as_xyz
 1  'x, y, z'
loop_
 _atom_site_type_symbol
 _atom_site_label
 _atom_site_symmetry_multiplicity
 _atom_site_fract_x
 _atom_site_fract_y
 _atom_site_fract_z
 _atom_site_fract_occupancy
 Na  Na1  1  0.49617  0.87500  0.87117  1
 Na  Na2  1  0.00383  0.12883  0.62500  1
 Na  Na3  1  0.99617  0.62117  0.12500  1
 Na  Na4  1  0.50383  0.37500  0.37883  1
 Na  Na5  1  0.50000  0.94335  0.44335  1
 Na  Na6  1  0.50000  0.55665  0.05665  1
 Na  Na7  1  -0.00000  0.80665  0.80665  1
 Na  Na8  1  0.00000  0.19335  0.19335  1
 Se  Se1  1  0.25983  0.52854  0.54643  1
 Se  Se2  1  0.98211  0.45357  0.71340  1
 Se  Se3  1  0.01789  0.73129  0.47146  1
 Se  Se4  1  0.25632  0.68930  0.97943  1
 Se  Se5  1  0.51789  0.22146  0.98129  1
 Se  Se6  1  0.74017  0.28660  0.26871  1
 Se  Se7  1  0.48211  0.46340  0.70357  1
 Se  Se8  1  0.70987  0.02057  0.27689  1
 Se  Se9  1  0.20987  0.02689  0.27057  1
 Se  Se10  1  0.79013  0.06070  0.81702  1
 Se  Se11  1  0.75983  0.29643  0.77854  1
 Se  Se12  1  0.24368  0.18298  0.97311  1
 Se  Se13  1  0.75632  0.72943  0.93930  1
 Se  Se14  1  0.74368  0.72311  0.43298  1
 Se  Se15  1  0.24017  0.01871  0.53660  1
 Se  Se16  1  0.29013  0.56702  0.31070  1
