CIF file written using JARVIS-Tools package.
data_Ta4Ni2C
_symmetry_space_group_name_H-M  'Fd-3m'
_cell_length_a       8.25933
_cell_length_b       8.25933
_cell_length_c       8.25933
_cell_angle_alpha    60
_cell_angle_beta     60
_cell_angle_gamma    60

_symmetry_Int_Tables_number  227
_chemical_formula_structural  Ta4Ni2C
_chemical_formula_sum  Ta6Ni8C4
_cell_volume  398.40016164194765
_cell_formula_units_Z  4
loop_
  _symmetry_equiv_pos_site_id
 _symmetry_equiv_pos_as_xyz
 1  'x, y, z'
loop_
 _atom_site_type_symbol
 _atom_site_label
 _atom_site_symmetry_multiplicity
 _atom_site_fract_x
 _atom_site_fract_y
 _atom_site_fract_z
 _atom_site_fract_occupancy
 C  C1  1  0.50000  1.00000  0.50000  1
 C  C2  1  0.50000  0.50000  0.50000  1
 C  C3  1  1.00000  0.50000  0.50000  1
 C  C4  1  0.50000  0.50000  1.00000  1
 Ni  Ni1  1  0.20595  0.88214  0.20595  1
 Ni  Ni2  1  0.20595  0.20595  0.20595  1
 Ni  Ni3  1  0.20595  0.20595  0.88214  1
 Ni  Ni4  1  0.88214  0.20595  0.20595  1
 Ni  Ni5  1  0.79405  0.79405  0.79405  1
 Ni  Ni6  1  0.79405  0.79405  0.11786  1
 Ni  Ni7  1  0.79405  0.11786  0.79405  1
 Ni  Ni8  1  0.11786  0.79405  0.79405  1
 Ta  Ta1  1  0.44133  0.44133  0.80867  1
 Ta  Ta2  1  0.00000  -0.00000  0.50000  1
 Ta  Ta3  1  0.00000  0.00000  0.00000  1
 Ta  Ta4  1  0.80867  0.44133  0.44133  1
 Ta  Ta5  1  0.44134  0.80867  0.80867  1
 Ta  Ta6  1  0.44133  0.80867  0.44133  1
 Ta  Ta7  1  0.55866  0.55866  0.19134  1
 Ta  Ta8  1  0.80867  0.44134  0.80867  1
 Ta  Ta9  1  0.80867  0.80867  0.44134  1
 Ta  Ta10  1  0.55866  0.19134  0.55866  1
 Ta  Ta11  1  0.19134  0.55866  0.19134  1
 Ta  Ta12  1  0.19134  0.55866  0.55866  1
 Ta  Ta13  1  0.55866  0.19134  0.19134  1
 Ta  Ta14  1  0.19134  0.19134  0.55866  1
 Ta  Ta15  1  0.00000  0.50000  -0.00000  1
 Ta  Ta16  1  0.50000  0.00000  -0.00000  1
