CIF file written using JARVIS-Tools package.
data_NbWSe4
_symmetry_space_group_name_H-M  'Pmma'
_cell_length_a       3.4084
_cell_length_b       13.0329
_cell_length_c       5.91018
_cell_angle_alpha    90
_cell_angle_beta     90.0002
_cell_angle_gamma    90

_symmetry_Int_Tables_number  51
_chemical_formula_structural  NbWSe4
_chemical_formula_sum  Nb2W2Se8
_cell_volume  262.5373840867488
_cell_formula_units_Z  2
loop_
  _symmetry_equiv_pos_site_id
 _symmetry_equiv_pos_as_xyz
 1  'x, y, z'
loop_
 _atom_site_type_symbol
 _atom_site_label
 _atom_site_symmetry_multiplicity
 _atom_site_fract_x
 _atom_site_fract_y
 _atom_site_fract_z
 _atom_site_fract_occupancy
 Nb  Nb1  1  0.00008  0.75000  0.67453  1
 Nb  Nb2  1  0.99992  0.25000  0.32547  1
 Se  Se1  1  0.49992  0.38142  0.16274  1
 Se  Se2  1  0.50008  0.88143  0.83726  1
 Se  Se3  1  0.50008  0.61857  0.83726  1
 Se  Se4  1  0.49992  0.11858  0.16274  1
 Se  Se5  1  0.99992  0.37626  0.67168  1
 Se  Se6  1  0.00008  0.87626  0.32832  1
 Se  Se7  1  0.00008  0.62374  0.32832  1
 Se  Se8  1  0.99992  0.12374  0.67168  1
 W  W1  1  0.50008  0.75000  0.15836  1
 W  W2  1  0.49992  0.25000  0.84163  1
