CIF file written using JARVIS-Tools package.
data_Ba2Ti2CuF14
_symmetry_space_group_name_H-M  'Cc'
_cell_length_a       5.2251
_cell_length_b       7.57247
_cell_length_c       15.0867
_cell_angle_alpha    92.3126
_cell_angle_beta     89.9964
_cell_angle_gamma    110.181

_symmetry_Int_Tables_number  9
_chemical_formula_structural  Ba2Ti2CuF14
_chemical_formula_sum  Ba4Ti4Cu2F28
_cell_volume  559.7668714521957
_cell_formula_units_Z  2
loop_
  _symmetry_equiv_pos_site_id
 _symmetry_equiv_pos_as_xyz
 1  'x, y, z'
loop_
 _atom_site_type_symbol
 _atom_site_label
 _atom_site_symmetry_multiplicity
 _atom_site_fract_x
 _atom_site_fract_y
 _atom_site_fract_z
 _atom_site_fract_occupancy
 Ba  Ba1  1  0.76556  0.63329  0.38267  1
 Ba  Ba2  1  0.86759  0.63348  0.88267  1
 Ba  Ba3  1  0.23243  0.36474  0.61652  1
 Ba  Ba4  1  0.13219  0.36489  0.11653  1
 Cu  Cu1  1  0.49994  0.99912  0.99965  1
 Cu  Cu2  1  0.49868  0.99884  0.49962  1
 F  F1  1  -0.00066  0.64223  0.21930  1
 F  F2  1  0.67929  0.51415  0.07540  1
 F  F3  1  0.56646  0.72982  0.19809  1
 F  F4  1  0.83440  0.51390  0.57553  1
 F  F5  1  0.35524  0.35603  0.28008  1
 F  F6  1  0.93591  -0.00880  0.83891  1
 F  F7  1  0.48406  0.86160  0.39453  1
 F  F8  1  0.62252  0.13635  0.10474  1
 F  F9  1  0.43337  0.26846  0.80123  1
 F  F10  1  0.16301  0.48390  0.42404  1
 F  F11  1  0.42524  0.26664  0.44150  1
 F  F12  1  0.57240  0.73125  0.55782  1
 F  F13  1  0.94269  0.00701  0.66034  1
 F  F14  1  0.15871  0.73147  0.05784  1
 F  F15  1  0.84119  0.26684  0.94150  1
 F  F16  1  0.10016  0.84529  0.52316  1
 F  F17  1  0.37734  0.86188  0.89456  1
 F  F18  1  0.16293  0.72981  0.69815  1
 F  F19  1  0.64243  0.64226  0.71934  1
 F  F20  1  0.83469  0.26840  0.30129  1
 F  F21  1  0.51320  0.13602  0.60472  1
 F  F22  1  0.89731  0.15232  0.47615  1
 F  F23  1  0.74502  0.84562  0.02317  1
 F  F24  1  0.05488  -0.00895  0.33890  1
 F  F25  1  0.25482  0.15260  0.97614  1
 F  F26  1  0.00039  0.35607  0.78006  1
 F  F27  1  0.06395  0.00714  0.16037  1
 F  F28  1  0.32063  0.48412  0.92395  1
 Ti  Ti1  1  0.10645  0.23710  0.36893  1
 Ti  Ti2  1  0.89110  0.76091  0.63044  1
 Ti  Ti3  1  0.13038  0.23726  0.86890  1
 Ti  Ti4  1  0.86953  0.76105  0.13042  1
