CIF file written using JARVIS-Tools package.
data_Ho2Co12P7
_symmetry_space_group_name_H-M  'P-6'
_cell_length_a       9.02221
_cell_length_b       9.02221
_cell_length_c       3.58424
_cell_angle_alpha    90
_cell_angle_beta     90
_cell_angle_gamma    120

_symmetry_Int_Tables_number  174
_chemical_formula_structural  Ho2Co12P7
_chemical_formula_sum  Ho2Co2P7
_cell_volume  252.67018766809863
_cell_formula_units_Z  1
loop_
  _symmetry_equiv_pos_site_id
 _symmetry_equiv_pos_as_xyz
 1  'x, y, z'
loop_
 _atom_site_type_symbol
 _atom_site_label
 _atom_site_symmetry_multiplicity
 _atom_site_fract_x
 _atom_site_fract_y
 _atom_site_fract_z
 _atom_site_fract_occupancy
 Co  Co1  1  0.11912  0.27273  0.00000  1
 Co  Co2  1  0.23801  0.13321  0.50000  1
 Co  Co3  1  0.72727  0.84639  0.00000  1
 Co  Co4  1  0.38226  0.94565  0.50000  1
 Co  Co5  1  0.93922  0.56398  0.00000  1
 Co  Co6  1  0.62476  0.06078  0.00000  1
 Co  Co7  1  0.86679  0.10480  0.50000  1
 Co  Co8  1  0.43602  0.37524  0.00000  1
 Co  Co9  1  0.89520  0.76199  0.50000  1
 Co  Co10  1  0.05435  0.43661  0.50000  1
 Co  Co11  1  0.15361  0.88088  0.00000  1
 Co  Co12  1  0.56339  0.61774  0.50000  1
 Ho  Ho1  1  0.66667  0.33333  0.50000  1
 Ho  Ho2  1  0.33333  0.66667  0.00000  1
 P  P1  1  0.11117  0.70877  0.50000  1
 P  P2  1  0.00000  0.00000  0.00000  1
 P  P3  1  0.29123  0.40239  0.50000  1
 P  P4  1  0.88681  0.29285  0.00000  1
 P  P5  1  0.40604  0.11319  0.00000  1
 P  P6  1  0.70715  0.59396  0.00000  1
 P  P7  1  0.59761  0.88883  0.50000  1
