CIF file written using JARVIS-Tools package.
data_NdPS4
_symmetry_space_group_name_H-M  'I4_1/acd'
_cell_length_a       10.8984
_cell_length_b       10.8985
_cell_length_c       12.4052
_cell_angle_alpha    116.057
_cell_angle_beta     116.057
_cell_angle_gamma    90

_symmetry_Int_Tables_number  142
_chemical_formula_structural  NdPS4
_chemical_formula_sum  Nd8P8S32
_cell_volume  1154.6423468642383
_cell_formula_units_Z  8
loop_
  _symmetry_equiv_pos_site_id
 _symmetry_equiv_pos_as_xyz
 1  'x, y, z'
loop_
 _atom_site_type_symbol
 _atom_site_label
 _atom_site_symmetry_multiplicity
 _atom_site_fract_x
 _atom_site_fract_y
 _atom_site_fract_z
 _atom_site_fract_occupancy
 Nd  Nd1  1  0.12500  0.37500  0.25000  1
 Nd  Nd2  1  0.87500  0.62500  0.75000  1
 Nd  Nd3  1  0.62500  0.87500  0.25000  1
 Nd  Nd4  1  0.37500  0.62500  0.75000  1
 Nd  Nd5  1  0.62500  0.37500  0.25000  1
 Nd  Nd6  1  0.12500  0.87500  0.25000  1
 Nd  Nd7  1  0.87500  0.12500  0.75000  1
 Nd  Nd8  1  0.37500  0.12500  0.75000  1
 P  P1  1  0.25000  0.21258  -0.00000  1
 P  P2  1  0.21258  0.75000  0.50000  1
 P  P3  1  0.71258  0.75000  0.50000  1
 P  P4  1  0.75000  0.28742  0.00000  1
 P  P5  1  0.75000  0.78742  0.00000  1
 P  P6  1  0.78742  0.25000  0.50000  1
 P  P7  1  0.28742  0.25000  0.50000  1
 P  P8  1  0.25000  0.71258  -0.00000  1
 S  S1  1  0.59345  0.89109  0.00441  1
 S  S2  1  0.89109  0.41095  0.50441  1
 S  S3  1  0.61331  0.59345  0.50441  1
 S  S4  1  0.33917  0.40644  0.17377  1
 S  S5  1  0.08905  0.60891  0.99559  1
 S  S6  1  0.26733  0.33917  0.67377  1
 S  S7  1  0.16083  0.23267  0.82623  1
 S  S8  1  0.23267  0.66540  0.32623  1
 S  S9  1  0.09356  0.16083  0.32623  1
 S  S10  1  0.66083  0.59356  0.82623  1
 S  S11  1  0.73267  0.66083  0.32623  1
 S  S12  1  0.59356  0.16540  0.32623  1
 S  S13  1  0.41095  0.61331  0.00441  1
 S  S14  1  0.66540  0.09356  0.82623  1
 S  S15  1  0.88669  0.08905  0.49559  1
 S  S16  1  0.90644  0.83917  0.67377  1
 S  S17  1  0.33460  0.90644  0.17377  1
 S  S18  1  0.83917  0.76733  0.17377  1
 S  S19  1  0.76733  0.33460  0.67377  1
 S  S20  1  0.58905  0.38669  0.99559  1
 S  S21  1  0.91095  0.39109  0.00441  1
 S  S22  1  0.38669  0.40655  0.49559  1
 S  S23  1  0.40644  0.83460  0.67377  1
 S  S24  1  0.40655  0.10891  0.99559  1
 S  S25  1  0.10891  0.58905  0.49559  1
 S  S26  1  0.11331  0.91095  0.50441  1
 S  S27  1  0.39109  0.09345  0.50441  1
 S  S28  1  0.09345  0.11331  0.00441  1
 S  S29  1  0.16540  0.73267  0.82623  1
 S  S30  1  0.90655  0.88669  0.99559  1
 S  S31  1  0.60891  0.90655  0.49559  1
 S  S32  1  0.83460  0.26733  0.17377  1
