CIF file written using JARVIS-Tools package.
data_YMn2S4
_symmetry_space_group_name_H-M  'Imma'
_cell_length_a       7.49079
_cell_length_b       7.49079
_cell_length_c       7.48952
_cell_angle_alpha    118.305
_cell_angle_beta     120.189
_cell_angle_gamma    91.3263

_symmetry_Int_Tables_number  74
_chemical_formula_structural  YMn2S4
_chemical_formula_sum  Y2Mn4S8
_cell_volume  300.334962477372
_cell_formula_units_Z  2
loop_
  _symmetry_equiv_pos_site_id
 _symmetry_equiv_pos_as_xyz
 1  'x, y, z'
loop_
 _atom_site_type_symbol
 _atom_site_label
 _atom_site_symmetry_multiplicity
 _atom_site_fract_x
 _atom_site_fract_y
 _atom_site_fract_z
 _atom_site_fract_occupancy
 Mn  Mn1  1  0.37075  0.62075  0.75000  1
 Mn  Mn2  1  0.62925  0.37925  0.25000  1
 Mn  Mn3  1  0.50000  0.00000  0.50000  1
 Mn  Mn4  1  0.00000  0.00000  0.00000  1
 S  S1  1  0.74225  0.76674  0.52464  1
 S  S2  1  0.74210  0.21761  0.97536  1
 S  S3  1  0.23877  0.23610  0.00282  1
 S  S4  1  0.25775  0.23326  0.47536  1
 S  S5  1  0.26672  0.76406  0.50282  1
 S  S6  1  0.25790  0.78239  0.02464  1
 S  S7  1  0.73328  0.23594  0.49718  1
 S  S8  1  0.76123  0.76390  -0.00282  1
 Y  Y1  1  0.00000  0.50000  0.00000  1
 Y  Y2  1  0.00000  0.00000  0.50000  1
