CIF file written using JARVIS-Tools package.
data_Ti2Pd3
_symmetry_space_group_name_H-M  'Cmcm'
_cell_length_a       4.62684
_cell_length_b       4.71608
_cell_length_c       7.54565
_cell_angle_alpha    108.21
_cell_angle_beta     90
_cell_angle_gamma    90

_symmetry_Int_Tables_number  63
_chemical_formula_structural  Ti2Pd3
_chemical_formula_sum  Ti4Pd6
_cell_volume  156.40401148891686
_cell_formula_units_Z  2
loop_
  _symmetry_equiv_pos_site_id
 _symmetry_equiv_pos_as_xyz
 1  'x, y, z'
loop_
 _atom_site_type_symbol
 _atom_site_label
 _atom_site_symmetry_multiplicity
 _atom_site_fract_x
 _atom_site_fract_y
 _atom_site_fract_z
 _atom_site_fract_occupancy
 Pd  Pd1  1  0.25000  0.08762  0.61095  1
 Pd  Pd2  1  0.75000  0.91238  0.38905  1
 Pd  Pd3  1  0.75000  0.52334  0.61095  1
 Pd  Pd4  1  0.25000  0.47666  0.38905  1
 Pd  Pd5  1  0.75000  0.70604  -0.00000  1
 Pd  Pd6  1  0.25000  0.29396  0.00000  1
 Ti  Ti1  1  0.75000  0.33638  0.21573  1
 Ti  Ti2  1  0.25000  0.66362  0.78427  1
 Ti  Ti3  1  0.75000  0.12064  0.78427  1
 Ti  Ti4  1  0.25000  0.87936  0.21573  1
