CIF file written using JARVIS-Tools package.
data_LiV2S4
_symmetry_space_group_name_H-M  'Fd-3m'
_cell_length_a       7.05412
_cell_length_b       7.05412
_cell_length_c       7.05677
_cell_angle_alpha    119.988
_cell_angle_beta     119.988
_cell_angle_gamma    90

_symmetry_Int_Tables_number  227
_chemical_formula_structural  LiV2S4
_chemical_formula_sum  Li2V4S8
_cell_volume  248.3931799285911
_cell_formula_units_Z  2
loop_
  _symmetry_equiv_pos_site_id
 _symmetry_equiv_pos_as_xyz
 1  'x, y, z'
loop_
 _atom_site_type_symbol
 _atom_site_label
 _atom_site_symmetry_multiplicity
 _atom_site_fract_x
 _atom_site_fract_y
 _atom_site_fract_z
 _atom_site_fract_occupancy
 Li  Li1  1  0.37500  0.62500  0.75000  1
 Li  Li2  1  0.62500  0.37500  0.25000  1
 S  S1  1  0.75814  0.77412  0.51629  1
 S  S2  1  0.75783  0.24186  0.98371  1
 S  S3  1  0.22588  0.24186  0.98371  1
 S  S4  1  0.24186  0.22588  0.48371  1
 S  S5  1  0.24186  0.75783  0.48371  1
 S  S6  1  0.24217  0.75814  0.01629  1
 S  S7  1  0.75814  0.24217  0.51629  1
 S  S8  1  0.77412  0.75814  0.01629  1
 V  V1  1  -0.00000  0.50000  0.00000  1
 V  V2  1  0.00000  -0.00000  0.50000  1
 V  V3  1  0.50000  -0.00000  0.50000  1
 V  V4  1  0.00000  0.00000  0.00000  1
