CIF file written using JARVIS-Tools package.
data_Ti2ZnS4
_symmetry_space_group_name_H-M  'Imma'
_cell_length_a       7.05107
_cell_length_b       7.05117
_cell_length_c       7.05163
_cell_angle_alpha    118.954
_cell_angle_beta     119.783
_cell_angle_gamma    91.0975

_symmetry_Int_Tables_number  74
_chemical_formula_structural  Ti2ZnS4
_chemical_formula_sum  Ti4Zn2S8
_cell_volume  250.21356931831562
_cell_formula_units_Z  2
loop_
  _symmetry_equiv_pos_site_id
 _symmetry_equiv_pos_as_xyz
 1  'x, y, z'
loop_
 _atom_site_type_symbol
 _atom_site_label
 _atom_site_symmetry_multiplicity
 _atom_site_fract_x
 _atom_site_fract_y
 _atom_site_fract_z
 _atom_site_fract_occupancy
 S  S1  1  0.24078  0.24913  0.99164  1
 S  S2  1  0.24930  0.74389  0.99456  1
 S  S3  1  0.75748  0.24915  0.50837  1
 S  S4  1  0.75068  0.74525  0.49456  1
 S  S5  1  0.24252  0.75085  0.49163  1
 S  S6  1  0.75070  0.25611  0.00544  1
 S  S7  1  0.24932  0.25475  0.50544  1
 S  S8  1  0.75922  0.75087  0.00836  1
 Ti  Ti1  1  -0.00000  0.50000  -0.00000  1
 Ti  Ti2  1  -0.00000  0.50000  0.50000  1
 Ti  Ti3  1  -0.00000  0.00000  0.50000  1
 Ti  Ti4  1  0.50000  0.50000  -0.00000  1
 Zn  Zn1  1  0.00000  0.00000  0.00000  1
 Zn  Zn2  1  0.50000  0.00000  0.50000  1
