CIF file written using JARVIS-Tools package.
data_AlCo2S4
_symmetry_space_group_name_H-M  'Fd-3m'
_cell_length_a       6.8049
_cell_length_b       6.8049
_cell_length_c       6.80506
_cell_angle_alpha    119.999
_cell_angle_beta     119.999
_cell_angle_gamma    89.9999

_symmetry_Int_Tables_number  227
_chemical_formula_structural  AlCo2S4
_chemical_formula_sum  Al2Co4S8
_cell_volume  222.82866900386463
_cell_formula_units_Z  2
loop_
  _symmetry_equiv_pos_site_id
 _symmetry_equiv_pos_as_xyz
 1  'x, y, z'
loop_
 _atom_site_type_symbol
 _atom_site_label
 _atom_site_symmetry_multiplicity
 _atom_site_fract_x
 _atom_site_fract_y
 _atom_site_fract_z
 _atom_site_fract_occupancy
 Al  Al1  1  0.37500  0.62500  0.75000  1
 Al  Al2  1  0.62500  0.37500  0.25000  1
 Co  Co1  1  -0.00000  0.50000  0.00000  1
 Co  Co2  1  0.00000  0.00000  0.50000  1
 Co  Co3  1  0.50000  0.00000  0.50000  1
 Co  Co4  1  0.00000  0.00000  0.00000  1
 S  S1  1  0.76278  0.78832  0.52555  1
 S  S2  1  0.76276  0.23722  0.97445  1
 S  S3  1  0.21168  0.23722  0.97445  1
 S  S4  1  0.23722  0.21168  0.47445  1
 S  S5  1  0.23722  0.76276  0.47445  1
 S  S6  1  0.23724  0.76278  0.02555  1
 S  S7  1  0.76278  0.23724  0.52555  1
 S  S8  1  0.78832  0.76278  0.02555  1
