CIF file written using JARVIS-Tools package.
data_YCr2S4
_symmetry_space_group_name_H-M  'Fd-3m'
_cell_length_a       7.47717
_cell_length_b       7.47717
_cell_length_c       7.47911
_cell_angle_alpha    119.992
_cell_angle_beta     119.992
_cell_angle_gamma    90

_symmetry_Int_Tables_number  227
_chemical_formula_structural  YCr2S4
_chemical_formula_sum  Y2Cr4S8
_cell_volume  295.7486117230568
_cell_formula_units_Z  2
loop_
  _symmetry_equiv_pos_site_id
 _symmetry_equiv_pos_as_xyz
 1  'x, y, z'
loop_
 _atom_site_type_symbol
 _atom_site_label
 _atom_site_symmetry_multiplicity
 _atom_site_fract_x
 _atom_site_fract_y
 _atom_site_fract_z
 _atom_site_fract_occupancy
 Cr  Cr1  1  -0.00000  0.50000  0.00000  1
 Cr  Cr2  1  0.00000  0.00000  0.50000  1
 Cr  Cr3  1  0.50000  0.00000  0.50000  1
 Cr  Cr4  1  0.00000  0.00000  0.00000  1
 S  S1  1  0.76650  0.79927  0.53300  1
 S  S2  1  0.76627  0.23350  0.96700  1
 S  S3  1  0.20073  0.23350  0.96700  1
 S  S4  1  0.23350  0.20073  0.46700  1
 S  S5  1  0.23350  0.76627  0.46700  1
 S  S6  1  0.23373  0.76650  0.03300  1
 S  S7  1  0.76650  0.23373  0.53300  1
 S  S8  1  0.79927  0.76650  0.03300  1
 Y  Y1  1  0.37500  0.62500  0.75000  1
 Y  Y2  1  0.62500  0.37500  0.25000  1
