CIF file written using JARVIS-Tools package.
data_MgTi2S4
_symmetry_space_group_name_H-M  'Imma'
_cell_length_a       7.34493
_cell_length_b       7.34493
_cell_length_c       7.34513
_cell_angle_alpha    119.33
_cell_angle_beta     121.22
_cell_angle_gamma    89.5303

_symmetry_Int_Tables_number  74
_chemical_formula_structural  MgTi2S4
_chemical_formula_sum  Mg2Ti4S8
_cell_volume  278.92710939282165
_cell_formula_units_Z  2
loop_
  _symmetry_equiv_pos_site_id
 _symmetry_equiv_pos_as_xyz
 1  'x, y, z'
loop_
 _atom_site_type_symbol
 _atom_site_label
 _atom_site_symmetry_multiplicity
 _atom_site_fract_x
 _atom_site_fract_y
 _atom_site_fract_z
 _atom_site_fract_occupancy
 Mg  Mg1  1  -0.00000  0.50000  0.00000  1
 Mg  Mg2  1  0.00000  -0.00000  0.50000  1
 S  S1  1  0.75064  0.76439  0.51378  1
 S  S2  1  0.75061  0.23686  0.98622  1
 S  S3  1  0.23349  0.23952  0.99396  1
 S  S4  1  0.24936  0.23561  0.48622  1
 S  S5  1  0.25444  0.76046  0.49396  1
 S  S6  1  0.24939  0.76314  0.01378  1
 S  S7  1  0.74556  0.23953  0.50604  1
 S  S8  1  0.76651  0.76048  0.00604  1
 Ti  Ti1  1  0.37664  0.62664  0.75000  1
 Ti  Ti2  1  0.62336  0.37336  0.25000  1
 Ti  Ti3  1  0.50000  -0.00000  0.50000  1
 Ti  Ti4  1  0.00000  0.00000  0.00000  1
