CIF file written using JARVIS-Tools package.
data_Rb3NbS4
_symmetry_space_group_name_H-M  'Pnma'
_cell_length_a       9.59928
_cell_length_b       9.65714
_cell_length_c       10.9904
_cell_angle_alpha    90
_cell_angle_beta     90
_cell_angle_gamma    90

_symmetry_Int_Tables_number  62
_chemical_formula_structural  Rb3NbS4
_chemical_formula_sum  Rb2Nb4S6
_cell_volume  1018.8261555436741
_cell_formula_units_Z  4
loop_
  _symmetry_equiv_pos_site_id
 _symmetry_equiv_pos_as_xyz
 1  'x, y, z'
loop_
 _atom_site_type_symbol
 _atom_site_label
 _atom_site_symmetry_multiplicity
 _atom_site_fract_x
 _atom_site_fract_y
 _atom_site_fract_z
 _atom_site_fract_occupancy
 Nb  Nb1  1  0.78213  0.48461  0.75000  1
 Nb  Nb2  1  0.28213  0.01539  0.75000  1
 Nb  Nb3  1  0.71787  0.98461  0.25000  1
 Nb  Nb4  1  0.21787  0.51539  0.25000  1
 Rb  Rb1  1  0.35830  0.58453  0.75000  1
 Rb  Rb2  1  0.44874  0.79082  0.45746  1
 Rb  Rb3  1  0.55126  0.20918  0.95746  1
 Rb  Rb4  1  0.94874  0.70918  0.04254  1
 Rb  Rb5  1  0.05126  0.29082  0.54254  1
 Rb  Rb6  1  0.55126  0.20918  0.54254  1
 Rb  Rb7  1  0.44874  0.79082  0.04254  1
 Rb  Rb8  1  0.94874  0.70918  0.45746  1
 Rb  Rb9  1  0.64170  0.41547  0.25000  1
 Rb  Rb10  1  0.14170  0.08453  0.25000  1
 Rb  Rb11  1  0.85830  0.91547  0.75000  1
 Rb  Rb12  1  0.05126  0.29082  0.95746  1
 S  S1  1  0.33350  0.44976  0.07679  1
 S  S2  1  0.30088  0.25216  0.75000  1
 S  S3  1  0.80088  0.24784  0.75000  1
 S  S4  1  0.19912  0.75216  0.25000  1
 S  S5  1  0.69912  0.74784  0.25000  1
 S  S6  1  0.00297  0.57893  0.75000  1
 S  S7  1  0.49703  0.07893  0.25000  1
 S  S8  1  0.33350  0.44976  0.42321  1
 S  S9  1  0.83350  0.05024  0.07679  1
 S  S10  1  0.66650  0.55024  0.92321  1
 S  S11  1  0.16650  0.94976  0.57679  1
 S  S12  1  0.16650  0.94976  0.92321  1
 S  S13  1  0.83350  0.05024  0.42321  1
 S  S14  1  0.50297  0.92107  0.75000  1
 S  S15  1  0.99703  0.42107  0.25000  1
 S  S16  1  0.66650  0.55024  0.57679  1
