CIF file written using JARVIS-Tools package.
data_Rb2V3O8
_symmetry_space_group_name_H-M  'P4bm'
_cell_length_a       8.95145
_cell_length_b       8.95145
_cell_length_c       5.55349
_cell_angle_alpha    90
_cell_angle_beta     90
_cell_angle_gamma    90

_symmetry_Int_Tables_number  100
_chemical_formula_structural  Rb2V3O8
_chemical_formula_sum  Rb4V6O6
_cell_volume  444.99283625517165
_cell_formula_units_Z  2
loop_
  _symmetry_equiv_pos_site_id
 _symmetry_equiv_pos_as_xyz
 1  'x, y, z'
loop_
 _atom_site_type_symbol
 _atom_site_label
 _atom_site_symmetry_multiplicity
 _atom_site_fract_x
 _atom_site_fract_y
 _atom_site_fract_z
 _atom_site_fract_occupancy
 O  O1  1  0.63039  0.13039  0.22719  1
 O  O2  1  0.50000  0.50000  0.24358  1
 O  O3  1  0.00000  0.00000  0.24358  1
 O  O4  1  0.86961  0.63039  0.22719  1
 O  O5  1  0.19092  0.91580  0.63672  1
 O  O6  1  0.91580  0.80908  0.63672  1
 O  O7  1  0.08420  0.19092  0.63672  1
 O  O8  1  0.80908  0.08420  0.63672  1
 O  O9  1  0.69092  0.58420  0.63672  1
 O  O10  1  0.58420  0.30908  0.63672  1
 O  O11  1  0.50000  0.00000  0.64259  1
 O  O12  1  0.00000  0.50000  0.64259  1
 O  O13  1  0.13039  0.36961  0.22719  1
 O  O14  1  0.36961  0.86961  0.22719  1
 O  O15  1  0.30908  0.41580  0.63672  1
 O  O16  1  0.41580  0.69092  0.63672  1
 Rb  Rb1  1  0.83135  0.33135  0.00314  1
 Rb  Rb2  1  0.33135  0.16865  0.00314  1
 Rb  Rb3  1  0.66865  0.83135  0.00314  1
 Rb  Rb4  1  0.16865  0.66865  0.00314  1
 V  V1  1  0.13415  0.36585  0.52580  1
 V  V2  1  0.36585  0.86585  0.52580  1
 V  V3  1  0.86585  0.63415  0.52580  1
 V  V4  1  0.50000  0.50000  0.53701  1
 V  V5  1  0.63415  0.13415  0.52580  1
 V  V6  1  0.00000  0.00000  0.53701  1
