CIF file written using JARVIS-Tools package.
data_Sr3InP3
_symmetry_space_group_name_H-M  'Pnma'
_cell_length_a       4.34604
_cell_length_b       12.8623
_cell_length_c       13.8903
_cell_angle_alpha    90
_cell_angle_beta     90
_cell_angle_gamma    90

_symmetry_Int_Tables_number  62
_chemical_formula_structural  Sr3InP3
_chemical_formula_sum  Sr2In4P2
_cell_volume  776.465639145967
_cell_formula_units_Z  4
loop_
  _symmetry_equiv_pos_site_id
 _symmetry_equiv_pos_as_xyz
 1  'x, y, z'
loop_
 _atom_site_type_symbol
 _atom_site_label
 _atom_site_symmetry_multiplicity
 _atom_site_fract_x
 _atom_site_fract_y
 _atom_site_fract_z
 _atom_site_fract_occupancy
 In  In1  1  0.25000  0.05259  0.29848  1
 In  In2  1  0.75000  0.44741  0.79848  1
 In  In3  1  0.25000  0.55259  0.20152  1
 In  In4  1  0.75000  0.94741  0.70152  1
 P  P1  1  0.75000  0.75618  0.62768  1
 P  P2  1  0.25000  0.04793  0.64187  1
 P  P3  1  0.75000  0.95207  0.35813  1
 P  P4  1  0.75000  0.45207  0.14187  1
 P  P5  1  0.25000  0.54793  0.85813  1
 P  P6  1  0.25000  0.24382  0.37232  1
 P  P7  1  0.75000  0.40319  0.61376  1
 P  P8  1  0.25000  0.09681  0.11376  1
 P  P9  1  0.25000  0.59681  0.38624  1
 P  P10  1  0.75000  0.25618  0.87232  1
 P  P11  1  0.25000  0.74382  0.12768  1
 P  P12  1  0.75000  0.90319  0.88624  1
 Sr  Sr1  1  0.75000  0.22620  0.20679  1
 Sr  Sr2  1  0.25000  0.27380  0.70679  1
 Sr  Sr3  1  0.25000  0.07215  0.89488  1
 Sr  Sr4  1  0.25000  0.57215  0.60512  1
 Sr  Sr5  1  0.75000  0.42785  0.39488  1
 Sr  Sr6  1  0.75000  0.72620  0.29321  1
 Sr  Sr7  1  0.25000  0.35533  0.99639  1
 Sr  Sr8  1  0.75000  0.92785  0.10512  1
 Sr  Sr9  1  0.75000  0.14467  0.49639  1
 Sr  Sr10  1  0.25000  0.85533  0.50361  1
 Sr  Sr11  1  0.25000  0.77380  0.79321  1
 Sr  Sr12  1  0.75000  0.64467  0.00361  1
