CIF file written using JARVIS-Tools package.
data_Tl4CrI6
_symmetry_space_group_name_H-M  'Cccm'
_cell_length_a       9.17809
_cell_length_b       9.17809
_cell_length_c       9.67082
_cell_angle_alpha    90
_cell_angle_beta     90
_cell_angle_gamma    92.2064

_symmetry_Int_Tables_number  66
_chemical_formula_structural  Tl4CrI6
_chemical_formula_sum  Tl8Cr2I2
_cell_volume  814.0398314308824
_cell_formula_units_Z  2
loop_
  _symmetry_equiv_pos_site_id
 _symmetry_equiv_pos_as_xyz
 1  'x, y, z'
loop_
 _atom_site_type_symbol
 _atom_site_label
 _atom_site_symmetry_multiplicity
 _atom_site_fract_x
 _atom_site_fract_y
 _atom_site_fract_z
 _atom_site_fract_occupancy
 Cr  Cr1  1  0.50000  0.00000  0.00000  1
 Cr  Cr2  1  -0.00000  0.50000  0.50000  1
 I  I1  1  0.14648  0.18054  0.50000  1
 I  I2  1  0.81946  0.85352  0.00000  1
 I  I3  1  0.18054  0.14648  0.00000  1
 I  I4  1  0.28478  0.63276  0.50000  1
 I  I5  1  0.71522  0.36724  0.50000  1
 I  I6  1  0.63276  0.28478  0.00000  1
 I  I7  1  -0.00000  0.50000  0.78387  1
 I  I8  1  0.50000  0.00000  0.71613  1
 I  I9  1  -0.00000  0.50000  0.21613  1
 I  I10  1  0.50000  0.00000  0.28387  1
 I  I11  1  0.85352  0.81946  0.50000  1
 I  I12  1  0.36724  0.71522  0.00000  1
 Tl  Tl1  1  0.85961  0.14039  0.25000  1
 Tl  Tl2  1  0.35018  0.35018  0.75000  1
 Tl  Tl3  1  0.64982  0.64982  0.75000  1
 Tl  Tl4  1  0.64982  0.64982  0.25000  1
 Tl  Tl5  1  0.35018  0.35018  0.25000  1
 Tl  Tl6  1  0.14039  0.85961  0.75000  1
 Tl  Tl7  1  0.85961  0.14039  0.75000  1
 Tl  Tl8  1  0.14039  0.85961  0.25000  1
