CIF file written using JARVIS-Tools package.
data_Sr5Sn2P6
_symmetry_space_group_name_H-M  'Pbam'
_cell_length_a       4.16402
_cell_length_b       12.2363
_cell_length_c       13.8714
_cell_angle_alpha    90
_cell_angle_beta     90
_cell_angle_gamma    90

_symmetry_Int_Tables_number  55
_chemical_formula_structural  Sr5Sn2P6
_chemical_formula_sum  Sr0Sn4P2
_cell_volume  706.7787174524562
_cell_formula_units_Z  2
loop_
  _symmetry_equiv_pos_site_id
 _symmetry_equiv_pos_as_xyz
 1  'x, y, z'
loop_
 _atom_site_type_symbol
 _atom_site_label
 _atom_site_symmetry_multiplicity
 _atom_site_fract_x
 _atom_site_fract_y
 _atom_site_fract_z
 _atom_site_fract_occupancy
 P  P1  1  0.00000  0.13284  0.19520  1
 P  P2  1  0.50000  0.92187  0.39725  1
 P  P3  1  0.50000  0.82986  0.07667  1
 P  P4  1  0.50000  0.17014  0.92333  1
 P  P5  1  0.50000  0.32986  0.42333  1
 P  P6  1  0.50000  0.67014  0.57667  1
 P  P7  1  0.50000  0.57813  0.89725  1
 P  P8  1  0.50000  0.42187  0.10275  1
 P  P9  1  0.50000  0.07813  0.60275  1
 P  P10  1  0.00000  0.63284  0.30480  1
 P  P11  1  0.00000  0.36716  0.69520  1
 P  P12  1  0.00000  0.86716  0.80480  1
 Sn  Sn1  1  0.50000  0.21444  0.10427  1
 Sn  Sn2  1  0.50000  0.28556  0.60427  1
 Sn  Sn3  1  0.50000  0.71444  0.39573  1
 Sn  Sn4  1  0.50000  0.78556  0.89573  1
 Sr  Sr1  1  0.00000  0.37181  0.93036  1
 Sr  Sr2  1  0.00000  0.38040  0.25844  1
 Sr  Sr3  1  0.00000  0.11960  0.75844  1
 Sr  Sr4  1  0.00000  0.88040  0.24156  1
 Sr  Sr5  1  0.00000  0.00000  0.00000  1
 Sr  Sr6  1  0.00000  0.50000  0.50000  1
 Sr  Sr7  1  0.00000  0.87181  0.56964  1
 Sr  Sr8  1  0.00000  0.12819  0.43036  1
 Sr  Sr9  1  0.00000  0.61960  0.74156  1
 Sr  Sr10  1  0.00000  0.62819  0.06964  1
