CIF file written using JARVIS-Tools package.
data_NbW3Se8
_symmetry_space_group_name_H-M  'Imm2'
_cell_length_a       13.5174
_cell_length_b       13.5174
_cell_length_c       13.5172
_cell_angle_alpha    165.681
_cell_angle_beta     28.8801
_cell_angle_gamma    155.053

_symmetry_Int_Tables_number  44
_chemical_formula_structural  NbW3Se8
_chemical_formula_sum  NbW3Se8
_cell_volume  257.5354492216248
_cell_formula_units_Z  1
loop_
  _symmetry_equiv_pos_site_id
 _symmetry_equiv_pos_as_xyz
 1  'x, y, z'
loop_
 _atom_site_type_symbol
 _atom_site_label
 _atom_site_symmetry_multiplicity
 _atom_site_fract_x
 _atom_site_fract_y
 _atom_site_fract_z
 _atom_site_fract_occupancy
 Nb  Nb1  1  0.79951  0.67460  0.12510  1
 Se  Se1  1  0.02831  0.33750  0.69105  1
 Se  Se2  1  0.60525  0.66650  0.93854  1
 Se  Se3  1  0.47812  0.66666  0.81128  1
 Se  Se4  1  0.89644  0.33743  0.55913  1
 Se  Se5  1  0.51745  0.32916  0.18852  1
 Se  Se6  1  0.10537  0.66664  0.43853  1
 Se  Se7  1  0.97797  0.66653  0.31127  1
 Se  Se8  1  0.39063  0.32910  0.06166  1
 W  W1  1  0.20837  0.33330  0.87490  1
 W  W2  1  0.28418  0.65927  0.62509  1
 W  W3  1  0.70840  0.33330  0.37493  1
