CIF file written using JARVIS-Tools package.
data_RbGaCl4
_symmetry_space_group_name_H-M  'Pnma'
_cell_length_a       7.02819
_cell_length_b       9.2616
_cell_length_c       11.0531
_cell_angle_alpha    90
_cell_angle_beta     90
_cell_angle_gamma    90

_symmetry_Int_Tables_number  62
_chemical_formula_structural  RbGaCl4
_chemical_formula_sum  Rb4Ga4Cl6
_cell_volume  719.468438094304
_cell_formula_units_Z  4
loop_
  _symmetry_equiv_pos_site_id
 _symmetry_equiv_pos_as_xyz
 1  'x, y, z'
loop_
 _atom_site_type_symbol
 _atom_site_label
 _atom_site_symmetry_multiplicity
 _atom_site_fract_x
 _atom_site_fract_y
 _atom_site_fract_z
 _atom_site_fract_occupancy
 Cl  Cl1  1  0.49821  0.33074  0.07706  1
 Cl  Cl2  1  0.25000  0.93168  0.10232  1
 Cl  Cl3  1  0.75000  0.06832  0.89768  1
 Cl  Cl4  1  0.75000  0.43168  0.39768  1
 Cl  Cl5  1  0.50179  0.66926  0.92294  1
 Cl  Cl6  1  0.25000  0.94903  0.77077  1
 Cl  Cl7  1  0.75000  0.05097  0.22923  1
 Cl  Cl8  1  0.25000  0.56832  0.60232  1
 Cl  Cl9  1  0.25000  0.55097  0.27077  1
 Cl  Cl10  1  0.50179  0.83074  0.42294  1
 Cl  Cl11  1  0.00179  0.16926  0.57706  1
 Cl  Cl12  1  0.00179  0.33074  0.07706  1
 Cl  Cl13  1  -0.00179  0.66926  0.92294  1
 Cl  Cl14  1  0.49821  0.16926  0.57706  1
 Cl  Cl15  1  -0.00179  0.83074  0.42294  1
 Cl  Cl16  1  0.75000  0.44903  0.72923  1
 Ga  Ga1  1  0.25000  0.68953  0.43183  1
 Ga  Ga2  1  0.75000  0.31047  0.56817  1
 Ga  Ga3  1  0.75000  0.18953  0.06817  1
 Ga  Ga4  1  0.25000  0.81047  0.93183  1
 Rb  Rb1  1  0.75000  0.68016  0.18275  1
 Rb  Rb2  1  0.25000  0.31984  0.81725  1
 Rb  Rb3  1  0.25000  0.18016  0.31725  1
 Rb  Rb4  1  0.75000  0.81984  0.68275  1
