CIF file written using JARVIS-Tools package.
data_BaTl2Hg2
_symmetry_space_group_name_H-M  'P4_2/mnm'
_cell_length_a       10.961
_cell_length_b       10.961
_cell_length_c       5.17956
_cell_angle_alpha    90
_cell_angle_beta     90
_cell_angle_gamma    90

_symmetry_Int_Tables_number  136
_chemical_formula_structural  BaTl2Hg2
_chemical_formula_sum  Ba4Tl8Hg8
_cell_volume  622.2844508379967
_cell_formula_units_Z  4
loop_
  _symmetry_equiv_pos_site_id
 _symmetry_equiv_pos_as_xyz
 1  'x, y, z'
loop_
 _atom_site_type_symbol
 _atom_site_label
 _atom_site_symmetry_multiplicity
 _atom_site_fract_x
 _atom_site_fract_y
 _atom_site_fract_z
 _atom_site_fract_occupancy
 Ba  Ba1  1  0.85164  0.14836  0.00000  1
 Ba  Ba2  1  0.64836  0.64836  0.50000  1
 Ba  Ba3  1  0.35164  0.35164  0.50000  1
 Ba  Ba4  1  0.14836  0.85164  0.00000  1
 Hg  Hg1  1  0.40465  0.59535  0.00000  1
 Hg  Hg2  1  0.18732  0.18732  0.00000  1
 Hg  Hg3  1  0.68732  0.31268  0.50000  1
 Hg  Hg4  1  0.31268  0.68732  0.50000  1
 Hg  Hg5  1  0.81268  0.81268  0.00000  1
 Hg  Hg6  1  0.90465  0.90465  0.50000  1
 Hg  Hg7  1  0.59535  0.40465  0.00000  1
 Hg  Hg8  1  0.09535  0.09535  0.50000  1
 Tl  Tl1  1  0.35858  0.97133  0.50000  1
 Tl  Tl2  1  0.64142  0.02867  0.50000  1
 Tl  Tl3  1  0.02867  0.64142  0.50000  1
 Tl  Tl4  1  0.85858  0.52867  0.00000  1
 Tl  Tl5  1  0.97133  0.35858  0.50000  1
 Tl  Tl6  1  0.14142  0.47133  0.00000  1
 Tl  Tl7  1  0.52867  0.85858  0.00000  1
 Tl  Tl8  1  0.47133  0.14142  0.00000  1
