CIF file written using JARVIS-Tools package.
data_Sr3YRhO6
_symmetry_space_group_name_H-M  'R-3c'
_cell_length_a       6.81881
_cell_length_b       6.81881
_cell_length_c       6.8188
_cell_angle_alpha    91.9758
_cell_angle_beta     91.9758
_cell_angle_gamma    91.9759

_symmetry_Int_Tables_number  167
_chemical_formula_structural  Sr3YRhO6
_chemical_formula_sum  Sr6Y2Rh2O2
_cell_volume  316.46947206103783
_cell_formula_units_Z  2
loop_
  _symmetry_equiv_pos_site_id
 _symmetry_equiv_pos_as_xyz
 1  'x, y, z'
loop_
 _atom_site_type_symbol
 _atom_site_label
 _atom_site_symmetry_multiplicity
 _atom_site_fract_x
 _atom_site_fract_y
 _atom_site_fract_z
 _atom_site_fract_occupancy
 O  O1  1  0.08966  0.29213  0.95591  1
 O  O2  1  0.58966  0.45591  0.79213  1
 O  O3  1  0.45591  0.79213  0.58966  1
 O  O4  1  0.04409  0.91034  0.70787  1
 O  O5  1  0.91034  0.70787  0.04409  1
 O  O6  1  0.70787  0.04409  0.91034  1
 O  O7  1  0.20787  0.41034  0.54409  1
 O  O8  1  0.41034  0.54409  0.20787  1
 O  O9  1  0.54409  0.20787  0.41034  1
 O  O10  1  0.79213  0.58966  0.45591  1
 O  O11  1  0.29213  0.95591  0.08966  1
 O  O12  1  0.95591  0.08966  0.29213  1
 Rh  Rh1  1  0.50000  0.50000  0.50000  1
 Rh  Rh2  1  0.00000  0.00000  0.00000  1
 Sr  Sr1  1  0.88023  0.25000  0.61977  1
 Sr  Sr2  1  0.61977  0.88023  0.25000  1
 Sr  Sr3  1  0.11977  0.75000  0.38023  1
 Sr  Sr4  1  0.75000  0.38023  0.11977  1
 Sr  Sr5  1  0.38023  0.11977  0.75000  1
 Sr  Sr6  1  0.25000  0.61977  0.88023  1
 Y  Y1  1  0.75000  0.75000  0.75000  1
 Y  Y2  1  0.25000  0.25000  0.25000  1
