CIF file written using JARVIS-Tools package.
data_Ca3Si3Bi2O12
_symmetry_space_group_name_H-M  'Ia-3d'
_cell_length_a       11.0747
_cell_length_b       11.0748
_cell_length_c       11.0747
_cell_angle_alpha    109.471
_cell_angle_beta     109.471
_cell_angle_gamma    109.471

_symmetry_Int_Tables_number  230
_chemical_formula_structural  Ca3Si3Bi2O12
_chemical_formula_sum  Ca2Si2Bi8O48
_cell_volume  1045.6343130366015
_cell_formula_units_Z  4
loop_
  _symmetry_equiv_pos_site_id
 _symmetry_equiv_pos_as_xyz
 1  'x, y, z'
loop_
 _atom_site_type_symbol
 _atom_site_label
 _atom_site_symmetry_multiplicity
 _atom_site_fract_x
 _atom_site_fract_y
 _atom_site_fract_z
 _atom_site_fract_occupancy
 Bi  Bi1  1  0.50000  0.50000  0.00000  1
 Bi  Bi2  1  0.00000  0.00000  0.00000  1
 Bi  Bi3  1  -0.00000  0.50000  -0.00000  1
 Bi  Bi4  1  0.00000  0.00000  0.50000  1
 Bi  Bi5  1  -0.00000  0.50000  0.50000  1
 Bi  Bi6  1  0.50000  0.00000  0.50000  1
 Bi  Bi7  1  0.50000  0.50000  0.50000  1
 Bi  Bi8  1  0.50000  0.00000  0.00000  1
 Ca  Ca1  1  0.75000  0.12500  0.37500  1
 Ca  Ca2  1  0.12500  0.25000  0.37500  1
 Ca  Ca3  1  0.37500  0.75000  0.12500  1
 Ca  Ca4  1  0.12500  0.37500  0.75000  1
 Ca  Ca5  1  0.25000  0.37500  0.12500  1
 Ca  Ca6  1  0.62500  0.87500  0.75000  1
 Ca  Ca7  1  0.37500  0.12500  0.25000  1
 Ca  Ca8  1  0.62500  0.25000  0.87500  1
 Ca  Ca9  1  0.75000  0.62500  0.87500  1
 Ca  Ca10  1  0.25000  0.87500  0.62500  1
 Ca  Ca11  1  0.87500  0.75000  0.62500  1
 Ca  Ca12  1  0.87500  0.62500  0.25000  1
 O  O1  1  0.21077  0.48261  0.60939  1
 O  O2  1  0.98261  0.77184  0.87322  1
 O  O3  1  0.10138  0.72816  0.71077  1
 O  O4  1  0.51739  0.62678  0.72816  1
 O  O5  1  0.27184  0.28923  0.89862  1
 O  O6  1  0.21077  0.22816  0.60138  1
 O  O7  1  0.37322  0.27184  0.48261  1
 O  O8  1  0.27184  0.48261  0.37322  1
 O  O9  1  0.01739  0.28923  0.89061  1
 O  O10  1  0.12678  0.60939  0.89862  1
 O  O11  1  0.22816  0.60138  0.21077  1
 O  O12  1  0.22816  0.12678  0.01739  1
 O  O13  1  0.60138  0.21077  0.22816  1
 O  O14  1  0.60138  0.89061  0.37322  1
 O  O15  1  0.60939  0.21077  0.48261  1
 O  O16  1  0.89061  0.37322  0.60138  1
 O  O17  1  0.89862  0.12678  0.60939  1
 O  O18  1  0.10939  0.62678  0.39862  1
 O  O19  1  0.60939  0.89862  0.12678  1
 O  O20  1  0.89061  0.01739  0.28923  1
 O  O21  1  0.37322  0.60138  0.89061  1
 O  O22  1  0.48261  0.60939  0.21077  1
 O  O23  1  0.12678  0.01739  0.22816  1
 O  O24  1  0.78923  0.51739  0.39061  1
 O  O25  1  0.28923  0.89862  0.27184  1
 O  O26  1  0.89862  0.27184  0.28923  1
 O  O27  1  0.01739  0.22816  0.12678  1
 O  O28  1  0.71077  0.10138  0.72816  1
 O  O29  1  0.39862  0.10939  0.62678  1
 O  O30  1  0.72816  0.71077  0.10138  1
 O  O31  1  0.51739  0.39061  0.78923  1
 O  O32  1  0.98261  0.71077  0.10939  1
 O  O33  1  0.87322  0.98261  0.77184  1
 O  O34  1  0.77184  0.39862  0.78923  1
 O  O35  1  0.77184  0.87322  0.98261  1
 O  O36  1  0.39862  0.78923  0.77184  1
 O  O37  1  0.39061  0.78923  0.51739  1
 O  O38  1  0.78923  0.77184  0.39862  1
 O  O39  1  0.87322  0.39061  0.10138  1
 O  O40  1  0.71077  0.10939  0.98261  1
 O  O41  1  0.28923  0.89061  0.01739  1
 O  O42  1  0.62678  0.39862  0.10939  1
 O  O43  1  0.10939  0.98261  0.71077  1
 O  O44  1  0.48261  0.37322  0.27184  1
 O  O45  1  0.72816  0.51739  0.62678  1
 O  O46  1  0.10138  0.87322  0.39061  1
 O  O47  1  0.62678  0.72816  0.51739  1
 O  O48  1  0.39061  0.10138  0.87322  1
 Si  Si1  1  0.87500  0.12500  0.75000  1
 Si  Si2  1  0.25000  0.12500  0.87500  1
 Si  Si3  1  0.37500  0.25000  0.62500  1
 Si  Si4  1  0.12500  0.75000  0.87500  1
 Si  Si5  1  0.75000  0.87500  0.12500  1
 Si  Si6  1  0.75000  0.37500  0.62500  1
 Si  Si7  1  0.12500  0.87500  0.25000  1
 Si  Si8  1  0.87500  0.25000  0.12500  1
 Si  Si9  1  0.62500  0.75000  0.37500  1
 Si  Si10  1  0.25000  0.62500  0.37500  1
 Si  Si11  1  0.37500  0.62500  0.75000  1
 Si  Si12  1  0.62500  0.37500  0.25000  1
