CIF file written using JARVIS-Tools package.
data_YSnO3
_symmetry_space_group_name_H-M  'P6_3cm'
_cell_length_a       6.39484
_cell_length_b       6.39484
_cell_length_c       12.5512
_cell_angle_alpha    90
_cell_angle_beta     90
_cell_angle_gamma    120

_symmetry_Int_Tables_number  185
_chemical_formula_structural  YSnO3
_chemical_formula_sum  Y6Sn6O8
_cell_volume  444.5037668819285
_cell_formula_units_Z  6
loop_
  _symmetry_equiv_pos_site_id
 _symmetry_equiv_pos_as_xyz
 1  'x, y, z'
loop_
 _atom_site_type_symbol
 _atom_site_label
 _atom_site_symmetry_multiplicity
 _atom_site_fract_x
 _atom_site_fract_y
 _atom_site_fract_z
 _atom_site_fract_occupancy
 O  O1  1  -0.00000  0.30581  0.32583  1
 O  O2  1  0.66667  0.33333  0.97083  1
 O  O3  1  0.33333  0.66667  0.47083  1
 O  O4  1  0.69419  0.00000  0.82583  1
 O  O5  1  0.33333  0.66667  0.97083  1
 O  O6  1  0.00000  0.00000  0.03295  1
 O  O7  1  0.00000  0.00000  0.53295  1
 O  O8  1  0.36398  0.36398  0.17150  1
 O  O9  1  0.66667  0.33333  0.47083  1
 O  O10  1  0.00000  0.36398  0.67150  1
 O  O11  1  0.63602  -0.00000  0.17150  1
 O  O12  1  0.63602  0.63602  0.67150  1
 O  O13  1  0.30581  0.30581  0.82583  1
 O  O14  1  0.30581  -0.00000  0.32583  1
 O  O15  1  0.69419  0.69419  0.32583  1
 O  O16  1  0.00000  0.69419  0.82583  1
 O  O17  1  -0.00000  0.63602  0.17150  1
 O  O18  1  0.36398  0.00000  0.67150  1
 Sn  Sn1  1  0.00000  0.66687  0.99970  1
 Sn  Sn2  1  0.66687  0.66687  0.49970  1
 Sn  Sn3  1  0.66687  0.00000  0.99970  1
 Sn  Sn4  1  -0.00000  0.33313  0.49970  1
 Sn  Sn5  1  0.33313  -0.00000  0.49970  1
 Sn  Sn6  1  0.33313  0.33313  0.99970  1
 Y  Y1  1  0.00000  0.00000  0.73121  1
 Y  Y2  1  0.00000  0.00000  0.23121  1
 Y  Y3  1  0.33333  0.66667  0.76404  1
 Y  Y4  1  0.66667  0.33333  0.26404  1
 Y  Y5  1  0.33333  0.66667  0.26404  1
 Y  Y6  1  0.66667  0.33333  0.76404  1
