CIF file written using JARVIS-Tools package.
data_Sn3Pt2
_symmetry_space_group_name_H-M  'P6_3/mmc'
_cell_length_a       4.4259
_cell_length_b       4.4259
_cell_length_c       13.232
_cell_angle_alpha    90
_cell_angle_beta     90
_cell_angle_gamma    120

_symmetry_Int_Tables_number  194
_chemical_formula_structural  Sn3Pt2
_chemical_formula_sum  Sn6Pt4
_cell_volume  224.47074804683348
_cell_formula_units_Z  2
loop_
  _symmetry_equiv_pos_site_id
 _symmetry_equiv_pos_as_xyz
 1  'x, y, z'
loop_
 _atom_site_type_symbol
 _atom_site_label
 _atom_site_symmetry_multiplicity
 _atom_site_fract_x
 _atom_site_fract_y
 _atom_site_fract_z
 _atom_site_fract_occupancy
 Pt  Pt1  1  0.33333  0.66667  0.85662  1
 Pt  Pt2  1  0.66667  0.33333  0.35662  1
 Pt  Pt3  1  0.33333  0.66667  0.64338  1
 Pt  Pt4  1  0.66667  0.33333  0.14338  1
 Sn  Sn1  1  0.66667  0.33333  0.92850  1
 Sn  Sn2  1  0.33333  0.66667  0.07150  1
 Sn  Sn3  1  0.66667  0.33333  0.57150  1
 Sn  Sn4  1  0.33333  0.66667  0.42850  1
 Sn  Sn5  1  0.00000  0.00000  0.75000  1
 Sn  Sn6  1  0.00000  0.00000  0.25000  1
