CIF file written using JARVIS-Tools package.
data_NbW17Se36
_symmetry_space_group_name_H-M  'P-6m2'
_cell_length_a       10.0136
_cell_length_b       10.0136
_cell_length_c       13.1452
_cell_angle_alpha    90
_cell_angle_beta     90
_cell_angle_gamma    120

_symmetry_Int_Tables_number  187
_chemical_formula_structural  NbW17Se36
_chemical_formula_sum  NbW7Se36
_cell_volume  1141.5050366741636
_cell_formula_units_Z  1
loop_
  _symmetry_equiv_pos_site_id
 _symmetry_equiv_pos_as_xyz
 1  'x, y, z'
loop_
 _atom_site_type_symbol
 _atom_site_label
 _atom_site_symmetry_multiplicity
 _atom_site_fract_x
 _atom_site_fract_y
 _atom_site_fract_z
 _atom_site_fract_occupancy
 Nb  Nb1  1  0.22222  0.44444  0.75000  1
 Se  Se1  1  0.88889  0.77778  0.37749  1
 Se  Se2  1  0.77792  0.88875  0.62243  1
 Se  Se3  1  0.22224  0.11113  0.37748  1
 Se  Se4  1  0.11083  0.88875  0.62243  1
 Se  Se5  1  0.88889  0.11113  0.37748  1
 Se  Se6  1  0.88889  0.77778  0.12251  1
 Se  Se7  1  0.10895  0.21790  0.87894  1
 Se  Se8  1  0.22224  0.11113  0.12252  1
 Se  Se9  1  0.77792  0.88875  0.87757  1
 Se  Se10  1  0.88889  0.11113  0.12252  1
 Se  Se11  1  0.11083  0.88875  0.87757  1
 Se  Se12  1  0.10895  0.55772  0.62106  1
 Se  Se13  1  0.88889  0.44442  0.37748  1
 Se  Se14  1  0.44876  0.55772  0.62106  1
 Se  Se15  1  0.55554  0.44442  0.37748  1
 Se  Se16  1  0.44426  0.88853  0.62306  1
 Se  Se17  1  0.55556  0.11111  0.37756  1
 Se  Se18  1  0.88889  0.44442  0.12252  1
 Se  Se19  1  0.10895  0.55772  0.87894  1
 Se  Se20  1  0.55554  0.44442  0.12252  1
 Se  Se21  1  0.44876  0.55772  0.87894  1
 Se  Se22  1  0.55556  0.11111  0.12244  1
 Se  Se23  1  0.44426  0.88853  0.87694  1
 Se  Se24  1  0.44426  0.22240  0.62306  1
 Se  Se25  1  0.10895  0.21790  0.62106  1
 Se  Se26  1  0.77792  0.55583  0.87757  1
 Se  Se27  1  0.22224  0.77778  0.37748  1
 Se  Se28  1  0.55554  0.77778  0.37748  1
 Se  Se29  1  0.22222  0.44444  0.12243  1
 Se  Se30  1  0.77814  0.22240  0.87694  1
 Se  Se31  1  0.22224  0.77778  0.12252  1
 Se  Se32  1  0.77814  0.22240  0.62306  1
 Se  Se33  1  0.55554  0.77778  0.12252  1
 Se  Se34  1  0.22222  0.44444  0.37757  1
 Se  Se35  1  0.77792  0.55583  0.62243  1
 Se  Se36  1  0.44426  0.22240  0.87694  1
 W  W1  1  0.11113  0.22226  0.25000  1
 W  W2  1  0.88889  0.77778  0.75000  1
 W  W3  1  0.77776  0.88890  0.25000  1
 W  W4  1  0.11114  0.88890  0.25000  1
 W  W5  1  0.88859  0.10980  0.75000  1
 W  W6  1  0.11113  0.55554  0.25000  1
 W  W7  1  0.88859  0.44546  0.75000  1
 W  W8  1  0.55687  0.44546  0.75000  1
 W  W9  1  0.44441  0.55554  0.25000  1
 W  W10  1  0.22121  0.77808  0.75000  1
 W  W11  1  0.55687  0.77808  0.75000  1
 W  W12  1  0.77776  0.55552  0.25000  1
 W  W13  1  0.44448  0.22219  0.25000  1
 W  W14  1  0.55556  0.11111  0.75000  1
 W  W15  1  0.44448  0.88895  0.25000  1
 W  W16  1  0.22121  0.10980  0.75000  1
 W  W17  1  0.77771  0.22219  0.25000  1
