CIF file written using JARVIS-Tools package.
data_Zn3Si3Sb2O12
_symmetry_space_group_name_H-M  'Ia-3d'
_cell_length_a       10.6853
_cell_length_b       10.6853
_cell_length_c       10.6853
_cell_angle_alpha    109.471
_cell_angle_beta     109.471
_cell_angle_gamma    109.471

_symmetry_Int_Tables_number  230
_chemical_formula_structural  Zn3Si3Sb2O12
_chemical_formula_sum  Zn2Si2Sb8O48
_cell_volume  939.1569535408281
_cell_formula_units_Z  4
loop_
  _symmetry_equiv_pos_site_id
 _symmetry_equiv_pos_as_xyz
 1  'x, y, z'
loop_
 _atom_site_type_symbol
 _atom_site_label
 _atom_site_symmetry_multiplicity
 _atom_site_fract_x
 _atom_site_fract_y
 _atom_site_fract_z
 _atom_site_fract_occupancy
 O  O1  1  0.72951  0.70517  0.09917  1
 O  O2  1  0.27049  0.47567  0.36967  1
 O  O3  1  0.36967  0.27049  0.47567  1
 O  O4  1  0.20517  0.22951  0.59917  1
 O  O5  1  0.27049  0.29483  0.90083  1
 O  O6  1  0.52433  0.63033  0.72951  1
 O  O7  1  0.09917  0.72951  0.70517  1
 O  O8  1  0.97567  0.77049  0.86967  1
 O  O9  1  0.02433  0.29483  0.89400  1
 O  O10  1  0.79483  0.52433  0.39400  1
 O  O11  1  0.86967  0.97567  0.77049  1
 O  O12  1  0.52433  0.39400  0.79483  1
 O  O13  1  0.63033  0.40083  0.10600  1
 O  O14  1  0.10600  0.97567  0.70517  1
 O  O15  1  0.39400  0.09917  0.86967  1
 O  O16  1  0.72951  0.52433  0.63033  1
 O  O17  1  0.09917  0.86967  0.39400  1
 O  O18  1  0.40083  0.10600  0.63033  1
 O  O19  1  0.63033  0.72951  0.52433  1
 O  O20  1  0.13033  0.60600  0.90083  1
 O  O21  1  0.22951  0.13033  0.02433  1
 O  O22  1  0.90083  0.13033  0.60600  1
 O  O23  1  0.10600  0.63033  0.40083  1
 O  O24  1  0.60600  0.90083  0.13033  1
 O  O25  1  0.89400  0.02433  0.29483  1
 O  O26  1  0.36967  0.59917  0.89400  1
 O  O27  1  0.47567  0.60600  0.20517  1
 O  O28  1  0.13033  0.02433  0.22951  1
 O  O29  1  0.22951  0.59917  0.20517  1
 O  O30  1  0.59917  0.89400  0.36967  1
 O  O31  1  0.02433  0.22951  0.13033  1
 O  O32  1  0.90083  0.27049  0.29483  1
 O  O33  1  0.29483  0.90083  0.27049  1
 O  O34  1  0.89400  0.36967  0.59917  1
 O  O35  1  0.70517  0.09917  0.72951  1
 O  O36  1  0.60600  0.20517  0.47567  1
 O  O37  1  0.59917  0.20517  0.22951  1
 O  O38  1  0.20517  0.47567  0.60600  1
 O  O39  1  0.70517  0.10600  0.97567  1
 O  O40  1  0.47567  0.36967  0.27049  1
 O  O41  1  0.79483  0.77049  0.40083  1
 O  O42  1  0.39400  0.79483  0.52433  1
 O  O43  1  0.40083  0.79483  0.77049  1
 O  O44  1  0.77049  0.86967  0.97567  1
 O  O45  1  0.77049  0.40083  0.79483  1
 O  O46  1  0.86967  0.39400  0.09917  1
 O  O47  1  0.97567  0.70517  0.10600  1
 O  O48  1  0.29483  0.89400  0.02433  1
 Sb  Sb1  1  0.50000  0.50000  0.00000  1
 Sb  Sb2  1  0.50000  0.00000  0.00000  1
 Sb  Sb3  1  0.50000  0.50000  0.50000  1
 Sb  Sb4  1  -0.00000  0.50000  0.50000  1
 Sb  Sb5  1  0.00000  0.00000  0.50000  1
 Sb  Sb6  1  -0.00000  0.50000  0.00000  1
 Sb  Sb7  1  0.00000  0.00000  0.00000  1
 Sb  Sb8  1  0.50000  0.00000  0.50000  1
 Si  Si1  1  0.37500  0.62500  0.75000  1
 Si  Si2  1  0.25000  0.62500  0.37500  1
 Si  Si3  1  0.62500  0.75000  0.37500  1
 Si  Si4  1  0.87500  0.25000  0.12500  1
 Si  Si5  1  0.12500  0.87500  0.25000  1
 Si  Si6  1  0.12500  0.75000  0.87500  1
 Si  Si7  1  0.75000  0.87500  0.12500  1
 Si  Si8  1  0.62500  0.37500  0.25000  1
 Si  Si9  1  0.37500  0.25000  0.62500  1
 Si  Si10  1  0.25000  0.12500  0.87500  1
 Si  Si11  1  0.87500  0.12500  0.75000  1
 Si  Si12  1  0.75000  0.37500  0.62500  1
 Zn  Zn1  1  0.25000  0.37500  0.12500  1
 Zn  Zn2  1  0.62500  0.87500  0.75000  1
 Zn  Zn3  1  0.87500  0.62500  0.25000  1
 Zn  Zn4  1  0.62500  0.25000  0.87500  1
 Zn  Zn5  1  0.75000  0.62500  0.87500  1
 Zn  Zn6  1  0.12500  0.37500  0.75000  1
 Zn  Zn7  1  0.87500  0.75000  0.62500  1
 Zn  Zn8  1  0.37500  0.12500  0.25000  1
 Zn  Zn9  1  0.12500  0.25000  0.37500  1
 Zn  Zn10  1  0.75000  0.12500  0.37500  1
 Zn  Zn11  1  0.25000  0.87500  0.62500  1
 Zn  Zn12  1  0.37500  0.75000  0.12500  1
