CIF file written using JARVIS-Tools package.
data_Ca3Si3Ag2O12
_symmetry_space_group_name_H-M  'Ia-3d'
_cell_length_a       10.7459
_cell_length_b       10.7459
_cell_length_c       10.7459
_cell_angle_alpha    109.471
_cell_angle_beta     109.471
_cell_angle_gamma    109.471

_symmetry_Int_Tables_number  230
_chemical_formula_structural  Ca3Si3Ag2O12
_chemical_formula_sum  Ca2Si2Ag8O48
_cell_volume  955.2300131665763
_cell_formula_units_Z  4
loop_
  _symmetry_equiv_pos_site_id
 _symmetry_equiv_pos_as_xyz
 1  'x, y, z'
loop_
 _atom_site_type_symbol
 _atom_site_label
 _atom_site_symmetry_multiplicity
 _atom_site_fract_x
 _atom_site_fract_y
 _atom_site_fract_z
 _atom_site_fract_occupancy
 Ag  Ag1  1  0.50000  0.50000  -0.00000  1
 Ag  Ag2  1  0.00000  0.00000  0.00000  1
 Ag  Ag3  1  0.00000  0.50000  0.00000  1
 Ag  Ag4  1  0.00000  0.00000  0.50000  1
 Ag  Ag5  1  0.00000  0.50000  0.50000  1
 Ag  Ag6  1  0.50000  0.00000  0.50000  1
 Ag  Ag7  1  0.50000  0.50000  0.50000  1
 Ag  Ag8  1  0.50000  0.00000  -0.00000  1
 Ca  Ca1  1  0.75000  0.12500  0.37500  1
 Ca  Ca2  1  0.12500  0.25000  0.37500  1
 Ca  Ca3  1  0.37500  0.75000  0.12500  1
 Ca  Ca4  1  0.12500  0.37500  0.75000  1
 Ca  Ca5  1  0.25000  0.37500  0.12500  1
 Ca  Ca6  1  0.62500  0.87500  0.75000  1
 Ca  Ca7  1  0.37500  0.12500  0.25000  1
 Ca  Ca8  1  0.62500  0.25000  0.87500  1
 Ca  Ca9  1  0.75000  0.62500  0.87500  1
 Ca  Ca10  1  0.25000  0.87500  0.62500  1
 Ca  Ca11  1  0.87500  0.75000  0.62500  1
 Ca  Ca12  1  0.87500  0.62500  0.25000  1
 O  O1  1  0.20307  0.48388  0.60669  1
 O  O2  1  0.98388  0.78081  0.87719  1
 O  O3  1  0.09638  0.71919  0.70307  1
 O  O4  1  0.51612  0.62281  0.71919  1
 O  O5  1  0.28081  0.29693  0.90362  1
 O  O6  1  0.20307  0.21919  0.59638  1
 O  O7  1  0.37719  0.28081  0.48388  1
 O  O8  1  0.28081  0.48388  0.37719  1
 O  O9  1  0.01612  0.29693  0.89331  1
 O  O10  1  0.12281  0.60669  0.90362  1
 O  O11  1  0.21919  0.59638  0.20307  1
 O  O12  1  0.21919  0.12281  0.01612  1
 O  O13  1  0.59638  0.20307  0.21919  1
 O  O14  1  0.59638  0.89331  0.37719  1
 O  O15  1  0.60669  0.20307  0.48388  1
 O  O16  1  0.89331  0.37719  0.59638  1
 O  O17  1  0.90362  0.12281  0.60669  1
 O  O18  1  0.10669  0.62281  0.40362  1
 O  O19  1  0.60669  0.90362  0.12281  1
 O  O20  1  0.89331  0.01612  0.29693  1
 O  O21  1  0.37719  0.59638  0.89331  1
 O  O22  1  0.48388  0.60669  0.20307  1
 O  O23  1  0.12281  0.01612  0.21919  1
 O  O24  1  0.79693  0.51612  0.39331  1
 O  O25  1  0.29693  0.90362  0.28081  1
 O  O26  1  0.90362  0.28081  0.29693  1
 O  O27  1  0.01612  0.21919  0.12281  1
 O  O28  1  0.70307  0.09638  0.71919  1
 O  O29  1  0.40362  0.10669  0.62281  1
 O  O30  1  0.71919  0.70307  0.09638  1
 O  O31  1  0.51612  0.39331  0.79693  1
 O  O32  1  0.98388  0.70307  0.10669  1
 O  O33  1  0.87719  0.98388  0.78081  1
 O  O34  1  0.78081  0.40362  0.79693  1
 O  O35  1  0.78081  0.87719  0.98388  1
 O  O36  1  0.40362  0.79693  0.78081  1
 O  O37  1  0.39331  0.79693  0.51612  1
 O  O38  1  0.79693  0.78081  0.40362  1
 O  O39  1  0.87719  0.39331  0.09638  1
 O  O40  1  0.70307  0.10669  0.98388  1
 O  O41  1  0.29693  0.89331  0.01612  1
 O  O42  1  0.62281  0.40362  0.10669  1
 O  O43  1  0.10669  0.98388  0.70307  1
 O  O44  1  0.48388  0.37719  0.28081  1
 O  O45  1  0.71919  0.51612  0.62281  1
 O  O46  1  0.09638  0.87719  0.39331  1
 O  O47  1  0.62281  0.71919  0.51612  1
 O  O48  1  0.39331  0.09638  0.87719  1
 Si  Si1  1  0.87500  0.12500  0.75000  1
 Si  Si2  1  0.25000  0.12500  0.87500  1
 Si  Si3  1  0.37500  0.25000  0.62500  1
 Si  Si4  1  0.12500  0.75000  0.87500  1
 Si  Si5  1  0.75000  0.87500  0.12500  1
 Si  Si6  1  0.75000  0.37500  0.62500  1
 Si  Si7  1  0.12500  0.87500  0.25000  1
 Si  Si8  1  0.87500  0.25000  0.12500  1
 Si  Si9  1  0.62500  0.75000  0.37500  1
 Si  Si10  1  0.25000  0.62500  0.37500  1
 Si  Si11  1  0.37500  0.62500  0.75000  1
 Si  Si12  1  0.62500  0.37500  0.25000  1
