CIF file written using JARVIS-Tools package.
data_Yb2AlGe3
_symmetry_space_group_name_H-M  'Pnma'
_cell_length_a       4.16652
_cell_length_b       6.92962
_cell_length_c       18.3099
_cell_angle_alpha    90
_cell_angle_beta     90
_cell_angle_gamma    90

_symmetry_Int_Tables_number  62
_chemical_formula_structural  Yb2AlGe3
_chemical_formula_sum  Yb8Al4Ge2
_cell_volume  528.650587364361
_cell_formula_units_Z  4
loop_
  _symmetry_equiv_pos_site_id
 _symmetry_equiv_pos_as_xyz
 1  'x, y, z'
loop_
 _atom_site_type_symbol
 _atom_site_label
 _atom_site_symmetry_multiplicity
 _atom_site_fract_x
 _atom_site_fract_y
 _atom_site_fract_z
 _atom_site_fract_occupancy
 Al  Al1  1  0.25000  0.53855  0.56012  1
 Al  Al2  1  0.75000  0.46145  0.43988  1
 Al  Al3  1  0.25000  0.03855  0.93988  1
 Al  Al4  1  0.75000  0.96145  0.06012  1
 Ge  Ge1  1  0.75000  0.62308  0.31249  1
 Ge  Ge2  1  0.25000  0.01417  0.68606  1
 Ge  Ge3  1  0.75000  0.48583  0.18606  1
 Ge  Ge4  1  0.25000  0.51417  0.81394  1
 Ge  Ge5  1  0.75000  0.98583  0.31394  1
 Ge  Ge6  1  0.25000  0.25502  0.46517  1
 Ge  Ge7  1  0.75000  0.24498  0.96517  1
 Ge  Ge8  1  0.25000  0.75502  0.03483  1
 Ge  Ge9  1  0.75000  0.74498  0.53483  1
 Ge  Ge10  1  0.25000  0.37692  0.68751  1
 Ge  Ge11  1  0.25000  0.87692  0.81249  1
 Ge  Ge12  1  0.75000  0.12308  0.18751  1
 Yb  Yb1  1  0.25000  0.30303  0.29977  1
 Yb  Yb2  1  0.75000  0.19697  0.79977  1
 Yb  Yb3  1  0.25000  0.80303  0.20023  1
 Yb  Yb4  1  0.75000  0.69697  0.70023  1
 Yb  Yb5  1  0.25000  0.33889  0.08036  1
 Yb  Yb6  1  0.75000  0.16111  0.58036  1
 Yb  Yb7  1  0.25000  0.83889  0.41964  1
 Yb  Yb8  1  0.75000  0.66111  0.91964  1
