CIF file written using JARVIS-Tools package.
data_RbLiH4N2
_symmetry_space_group_name_H-M  'Pnma'
_cell_length_a       3.82417
_cell_length_b       7.73876
_cell_length_c       11.4016
_cell_angle_alpha    90
_cell_angle_beta     90
_cell_angle_gamma    90

_symmetry_Int_Tables_number  62
_chemical_formula_structural  RbLiH4N2
_chemical_formula_sum  Rb4Li4H6N8
_cell_volume  337.42123612552285
_cell_formula_units_Z  4
loop_
  _symmetry_equiv_pos_site_id
 _symmetry_equiv_pos_as_xyz
 1  'x, y, z'
loop_
 _atom_site_type_symbol
 _atom_site_label
 _atom_site_symmetry_multiplicity
 _atom_site_fract_x
 _atom_site_fract_y
 _atom_site_fract_z
 _atom_site_fract_occupancy
 H  H1  1  0.95896  0.90580  0.07035  1
 H  H2  1  0.25000  0.12419  0.68140  1
 H  H3  1  0.75000  0.37581  0.18140  1
 H  H4  1  0.25000  0.62419  0.81860  1
 H  H5  1  0.75000  0.75881  0.43691  1
 H  H6  1  0.25000  0.24119  0.56309  1
 H  H7  1  0.75000  0.25881  0.06309  1
 H  H8  1  0.25000  0.74119  0.93691  1
 H  H9  1  0.45896  0.09420  0.92965  1
 H  H10  1  0.54104  0.40580  0.42965  1
 H  H11  1  0.75000  0.87581  0.31860  1
 H  H12  1  0.04104  0.59420  0.57035  1
 H  H13  1  0.54104  0.90580  0.07035  1
 H  H14  1  0.45896  0.59420  0.57035  1
 H  H15  1  0.95896  0.40580  0.42965  1
 H  H16  1  0.04104  0.09420  0.92965  1
 Li  Li1  1  0.25000  0.88559  0.50066  1
 Li  Li2  1  0.75000  0.11441  0.49934  1
 Li  Li3  1  0.25000  0.38559  0.99934  1
 Li  Li4  1  0.75000  0.61441  0.00066  1
 N  N1  1  0.75000  0.38562  0.09099  1
 N  N2  1  0.25000  0.61438  0.90901  1
 N  N3  1  0.75000  0.84099  0.10740  1
 N  N4  1  0.25000  0.15901  0.89260  1
 N  N5  1  0.25000  0.11438  0.59099  1
 N  N6  1  0.25000  0.65901  0.60740  1
 N  N7  1  0.75000  0.34099  0.39260  1
 N  N8  1  0.75000  0.88562  0.40901  1
 Rb  Rb1  1  0.25000  0.62799  0.24138  1
 Rb  Rb2  1  0.75000  0.37201  0.75862  1
 Rb  Rb3  1  0.25000  0.12799  0.25862  1
 Rb  Rb4  1  0.75000  0.87201  0.74138  1
