CIF file written using JARVIS-Tools package.
data_Rb2ZnCl4
_symmetry_space_group_name_H-M  'Pnma'
_cell_length_a       7.13706
_cell_length_b       9.29749
_cell_length_c       12.5579
_cell_angle_alpha    90
_cell_angle_beta     90
_cell_angle_gamma    90

_symmetry_Int_Tables_number  62
_chemical_formula_structural  Rb2ZnCl4
_chemical_formula_sum  Rb8Zn4Cl6
_cell_volume  833.3019210526423
_cell_formula_units_Z  4
loop_
  _symmetry_equiv_pos_site_id
 _symmetry_equiv_pos_as_xyz
 1  'x, y, z'
loop_
 _atom_site_type_symbol
 _atom_site_label
 _atom_site_symmetry_multiplicity
 _atom_site_fract_x
 _atom_site_fract_y
 _atom_site_fract_z
 _atom_site_fract_occupancy
 Cl  Cl1  1  0.24919  0.31336  0.59406  1
 Cl  Cl2  1  0.50670  0.82650  0.15373  1
 Cl  Cl3  1  0.00670  0.17350  0.84627  1
 Cl  Cl4  1  0.74953  0.01641  0.59314  1
 Cl  Cl5  1  0.00670  0.67350  0.65373  1
 Cl  Cl6  1  -0.00790  0.32637  0.34609  1
 Cl  Cl7  1  0.24919  0.81336  0.90594  1
 Cl  Cl8  1  -0.00790  0.82637  0.15391  1
 Cl  Cl9  1  0.74919  0.68664  0.40594  1
 Cl  Cl10  1  0.24953  0.48359  0.09314  1
 Cl  Cl11  1  0.49210  0.67363  0.65391  1
 Cl  Cl12  1  0.74919  0.18664  0.09406  1
 Cl  Cl13  1  0.24953  0.98359  0.40686  1
 Cl  Cl14  1  0.50670  0.32650  0.34627  1
 Cl  Cl15  1  0.49210  0.17363  0.84609  1
 Cl  Cl16  1  0.74953  0.51641  0.90686  1
 Rb  Rb1  1  0.74926  0.02163  0.32696  1
 Rb  Rb2  1  0.74926  0.37170  0.58849  1
 Rb  Rb3  1  0.24926  0.12830  0.08849  1
 Rb  Rb4  1  0.24926  0.62830  0.41151  1
 Rb  Rb5  1  0.24926  0.97837  0.67304  1
 Rb  Rb6  1  0.74926  0.52163  0.17304  1
 Rb  Rb7  1  0.24926  0.47837  0.82696  1
 Rb  Rb8  1  0.74926  0.87170  0.91151  1
 Zn  Zn1  1  0.74936  0.27303  0.92325  1
 Zn  Zn2  1  0.74936  0.77303  0.57675  1
 Zn  Zn3  1  0.24936  0.22697  0.42325  1
 Zn  Zn4  1  0.24936  0.72697  0.07675  1
