CIF file written using JARVIS-Tools package.
data_Li2Ce2Ge3
_symmetry_space_group_name_H-M  'Cmcm'
_cell_length_a       4.40893
_cell_length_b       6.8394
_cell_length_c       9.53632
_cell_angle_alpha    90
_cell_angle_beta     103.366
_cell_angle_gamma    90

_symmetry_Int_Tables_number  63
_chemical_formula_structural  Li2Ce2Ge3
_chemical_formula_sum  Li4Ce4Ge6
_cell_volume  279.7732614381502
_cell_formula_units_Z  2
loop_
  _symmetry_equiv_pos_site_id
 _symmetry_equiv_pos_as_xyz
 1  'x, y, z'
loop_
 _atom_site_type_symbol
 _atom_site_label
 _atom_site_symmetry_multiplicity
 _atom_site_fract_x
 _atom_site_fract_y
 _atom_site_fract_z
 _atom_site_fract_occupancy
 Ce  Ce1  1  0.15631  0.75000  0.31262  1
 Ce  Ce2  1  0.84369  0.25000  0.68738  1
 Ce  Ce3  1  0.94972  0.75000  0.89944  1
 Ce  Ce4  1  0.05028  0.25000  0.10056  1
 Ge  Ge1  1  0.22053  0.25000  0.44106  1
 Ge  Ge2  1  0.77947  0.75000  0.55894  1
 Ge  Ge3  1  0.56409  0.56191  0.12817  1
 Ge  Ge4  1  0.43591  0.43809  0.87183  1
 Ge  Ge5  1  0.43591  0.06191  0.87183  1
 Ge  Ge6  1  0.56409  0.93809  0.12817  1
 Li  Li1  1  0.69148  0.06317  0.38295  1
 Li  Li2  1  0.30852  0.93683  0.61705  1
 Li  Li3  1  0.30852  0.56317  0.61705  1
 Li  Li4  1  0.69148  0.43683  0.38295  1
