CIF file written using JARVIS-Tools package.
data_Tl7Sb2
_symmetry_space_group_name_H-M  'Im-3m'
_cell_length_a       10.2955
_cell_length_b       10.2955
_cell_length_c       10.2955
_cell_angle_alpha    109.471
_cell_angle_beta     109.471
_cell_angle_gamma    109.471

_symmetry_Int_Tables_number  229
_chemical_formula_structural  Tl7Sb2
_chemical_formula_sum  Tl2Sb6
_cell_volume  840.0890030002553
_cell_formula_units_Z  3
loop_
  _symmetry_equiv_pos_site_id
 _symmetry_equiv_pos_as_xyz
 1  'x, y, z'
loop_
 _atom_site_type_symbol
 _atom_site_label
 _atom_site_symmetry_multiplicity
 _atom_site_fract_x
 _atom_site_fract_y
 _atom_site_fract_z
 _atom_site_fract_occupancy
 Sb  Sb1  1  0.69315  0.69315  0.00000  1
 Sb  Sb2  1  0.30685  0.00000  0.30685  1
 Sb  Sb3  1  0.00000  0.30685  0.30685  1
 Sb  Sb4  1  -0.00000  0.69315  0.69315  1
 Sb  Sb5  1  0.69315  -0.00000  0.69315  1
 Sb  Sb6  1  0.30685  0.30685  -0.00000  1
 Tl  Tl1  1  -0.00000  -0.00000  0.33885  1
 Tl  Tl2  1  0.69907  0.34953  0.34953  1
 Tl  Tl3  1  0.66115  0.66115  0.66115  1
 Tl  Tl4  1  0.00000  0.65047  0.34953  1
 Tl  Tl5  1  0.00000  0.00000  0.66115  1
 Tl  Tl6  1  0.34953  0.34953  0.69907  1
 Tl  Tl7  1  0.33885  0.00000  0.00000  1
 Tl  Tl8  1  -0.00000  0.34953  0.65047  1
 Tl  Tl9  1  0.34953  -0.00000  0.65047  1
 Tl  Tl10  1  0.00000  0.33885  0.00000  1
 Tl  Tl11  1  0.65047  0.65047  0.30093  1
 Tl  Tl12  1  0.34953  0.65047  0.00000  1
 Tl  Tl13  1  -0.00000  0.66115  -0.00000  1
 Tl  Tl14  1  0.00000  0.00000  0.00000  1
 Tl  Tl15  1  0.65047  0.34953  -0.00000  1
 Tl  Tl16  1  0.30093  0.65047  0.65047  1
 Tl  Tl17  1  0.65047  0.30093  0.65047  1
 Tl  Tl18  1  0.34953  0.69907  0.34953  1
 Tl  Tl19  1  0.33885  0.33885  0.33885  1
 Tl  Tl20  1  0.66115  -0.00000  -0.00000  1
 Tl  Tl21  1  0.65047  0.00000  0.34953  1
