CIF file written using JARVIS-Tools package.
data_Sc5Ga3
_symmetry_space_group_name_H-M  'P6_3/mcm'
_cell_length_a       8.05197
_cell_length_b       8.05197
_cell_length_c       5.92383
_cell_angle_alpha    90
_cell_angle_beta     90
_cell_angle_gamma    120

_symmetry_Int_Tables_number  193
_chemical_formula_structural  Sc5Ga3
_chemical_formula_sum  Sc0Ga6
_cell_volume  332.61129705559836
_cell_formula_units_Z  2
loop_
  _symmetry_equiv_pos_site_id
 _symmetry_equiv_pos_as_xyz
 1  'x, y, z'
loop_
 _atom_site_type_symbol
 _atom_site_label
 _atom_site_symmetry_multiplicity
 _atom_site_fract_x
 _atom_site_fract_y
 _atom_site_fract_z
 _atom_site_fract_occupancy
 Ga  Ga1  1  0.00000  0.39865  0.75000  1
 Ga  Ga2  1  0.39865  0.39865  0.25000  1
 Ga  Ga3  1  0.60135  -0.00000  0.25000  1
 Ga  Ga4  1  0.39865  0.00000  0.75000  1
 Ga  Ga5  1  0.60135  0.60135  0.75000  1
 Ga  Ga6  1  -0.00000  0.60135  0.25000  1
 Sc  Sc1  1  0.33333  0.66667  0.00000  1
 Sc  Sc2  1  0.66667  0.33333  0.50000  1
 Sc  Sc3  1  0.66667  0.33333  0.00000  1
 Sc  Sc4  1  0.33333  0.66667  0.50000  1
 Sc  Sc5  1  0.00000  0.75871  0.75000  1
 Sc  Sc6  1  0.75871  0.75871  0.25000  1
 Sc  Sc7  1  0.24129  -0.00000  0.25000  1
 Sc  Sc8  1  0.75871  0.00000  0.75000  1
 Sc  Sc9  1  0.24129  0.24129  0.75000  1
 Sc  Sc10  1  -0.00000  0.24129  0.25000  1
