CIF file written using JARVIS-Tools package.
data_Na10CaSn12
_symmetry_space_group_name_H-M  'I-43m'
_cell_length_a       9.72263
_cell_length_b       9.72262
_cell_length_c       9.72262
_cell_angle_alpha    109.471
_cell_angle_beta     109.471
_cell_angle_gamma    109.471

_symmetry_Int_Tables_number  217
_chemical_formula_structural  Na10CaSn12
_chemical_formula_sum  Na0CaSn2
_cell_volume  707.5029716225932
_cell_formula_units_Z  1
loop_
  _symmetry_equiv_pos_site_id
 _symmetry_equiv_pos_as_xyz
 1  'x, y, z'
loop_
 _atom_site_type_symbol
 _atom_site_label
 _atom_site_symmetry_multiplicity
 _atom_site_fract_x
 _atom_site_fract_y
 _atom_site_fract_z
 _atom_site_fract_occupancy
 Ca  Ca1  1  0.00000  0.00000  0.00000  1
 Na  Na1  1  0.50000  0.25000  0.75000  1
 Na  Na2  1  0.00000  0.00000  0.38479  1
 Na  Na3  1  -0.00000  0.38479  -0.00000  1
 Na  Na4  1  0.38479  -0.00000  -0.00000  1
 Na  Na5  1  0.61521  0.61521  0.61521  1
 Na  Na6  1  0.50000  0.75000  0.25000  1
 Na  Na7  1  0.25000  0.75000  0.50000  1
 Na  Na8  1  0.75000  0.25000  0.50000  1
 Na  Na9  1  0.25000  0.50000  0.75000  1
 Na  Na10  1  0.75000  0.50000  0.25000  1
 Sn  Sn1  1  0.62714  0.81070  -0.00000  1
 Sn  Sn2  1  0.37286  0.18356  0.37286  1
 Sn  Sn3  1  0.18356  0.37286  0.37286  1
 Sn  Sn4  1  0.00000  0.62714  0.81070  1
 Sn  Sn5  1  0.18930  0.18930  0.81644  1
 Sn  Sn6  1  0.81070  0.62714  -0.00000  1
 Sn  Sn7  1  0.18930  0.81644  0.18930  1
 Sn  Sn8  1  0.81644  0.18930  0.18930  1
 Sn  Sn9  1  0.00000  0.81070  0.62714  1
 Sn  Sn10  1  0.62714  0.00000  0.81070  1
 Sn  Sn11  1  0.81070  0.00000  0.62714  1
 Sn  Sn12  1  0.37286  0.37286  0.18356  1
