CIF file written using JARVIS-Tools package.
data_Tb2Ti3Si4
_symmetry_space_group_name_H-M  'P4_12_12'
_cell_length_a       7.08703
_cell_length_b       7.08703
_cell_length_c       13.0199
_cell_angle_alpha    90
_cell_angle_beta     90
_cell_angle_gamma    90

_symmetry_Int_Tables_number  92
_chemical_formula_structural  Tb2Ti3Si4
_chemical_formula_sum  Tb8Ti2Si6
_cell_volume  653.9397685852986
_cell_formula_units_Z  4
loop_
  _symmetry_equiv_pos_site_id
 _symmetry_equiv_pos_as_xyz
 1  'x, y, z'
loop_
 _atom_site_type_symbol
 _atom_site_label
 _atom_site_symmetry_multiplicity
 _atom_site_fract_x
 _atom_site_fract_y
 _atom_site_fract_z
 _atom_site_fract_occupancy
 Si  Si1  1  0.04523  0.70961  0.43489  1
 Si  Si2  1  0.95477  0.29039  0.93489  1
 Si  Si3  1  0.20177  0.12918  0.68415  1
 Si  Si4  1  0.37082  0.70177  0.93415  1
 Si  Si5  1  0.62918  0.29823  0.43415  1
 Si  Si6  1  0.70177  0.37082  0.06585  1
 Si  Si7  1  0.79823  0.87082  0.18415  1
 Si  Si8  1  0.29823  0.62918  0.56585  1
 Si  Si9  1  0.87082  0.79823  0.81585  1
 Si  Si10  1  0.29039  0.95477  0.06511  1
 Si  Si11  1  0.54523  0.79039  0.31511  1
 Si  Si12  1  0.45477  0.20961  0.81511  1
 Si  Si13  1  0.79039  0.54523  0.68489  1
 Si  Si14  1  0.20961  0.45477  0.18489  1
 Si  Si15  1  0.70961  0.04523  0.56511  1
 Si  Si16  1  0.12918  0.20177  0.31585  1
 Tb  Tb1  1  0.33984  0.00212  0.46695  1
 Tb  Tb2  1  0.49788  0.83984  0.71695  1
 Tb  Tb3  1  0.50212  0.16016  0.21695  1
 Tb  Tb4  1  0.83984  0.49788  0.28305  1
 Tb  Tb5  1  0.16016  0.50212  0.78305  1
 Tb  Tb6  1  0.66016  0.99788  0.96695  1
 Tb  Tb7  1  0.00212  0.33984  0.53305  1
 Tb  Tb8  1  0.99788  0.66016  0.03305  1
 Ti  Ti1  1  0.67230  0.67230  0.50000  1
 Ti  Ti2  1  0.82770  0.17230  0.75000  1
 Ti  Ti3  1  0.99209  0.84626  0.62363  1
 Ti  Ti4  1  0.34626  0.50791  0.37363  1
 Ti  Ti5  1  0.65374  0.49209  0.87363  1
 Ti  Ti6  1  0.50791  0.34626  0.62637  1
 Ti  Ti7  1  0.84626  0.99209  0.37637  1
 Ti  Ti8  1  0.15374  0.00791  0.87637  1
 Ti  Ti9  1  0.49209  0.65374  0.12637  1
 Ti  Ti10  1  0.32770  0.32770  0.00000  1
 Ti  Ti11  1  0.00791  0.15374  0.12363  1
 Ti  Ti12  1  0.17230  0.82770  0.25000  1
