CIF file written using JARVIS-Tools package.
data_NbW5Se12
_symmetry_space_group_name_H-M  'Cm'
_cell_length_a       3.35772
_cell_length_b       8.88901
_cell_length_c       13.5268
_cell_angle_alpha    103.574
_cell_angle_beta     97.1319
_cell_angle_gamma    79.1136

_symmetry_Int_Tables_number  8
_chemical_formula_structural  NbW5Se12
_chemical_formula_sum  NbW5Se2
_cell_volume  384.04246132182493
_cell_formula_units_Z  1
loop_
  _symmetry_equiv_pos_site_id
 _symmetry_equiv_pos_as_xyz
 1  'x, y, z'
loop_
 _atom_site_type_symbol
 _atom_site_label
 _atom_site_symmetry_multiplicity
 _atom_site_fract_x
 _atom_site_fract_y
 _atom_site_fract_z
 _atom_site_fract_occupancy
 Nb  Nb1  1  0.69284  0.36449  0.75000  1
 Se  Se1  1  0.43025  0.76180  0.62211  1
 Se  Se2  1  0.15186  0.81866  0.12261  1
 Se  Se3  1  0.23689  0.90357  0.37750  1
 Se  Se4  1  0.85032  0.17716  0.87755  1
 Se  Se5  1  0.57021  0.23695  0.37753  1
 Se  Se6  1  0.48518  0.15193  0.12253  1
 Se  Se7  1  0.76525  0.09211  0.62245  1
 Se  Se8  1  0.51554  0.84708  0.87789  1
 Se  Se9  1  0.90349  0.57021  0.37736  1
 Se  Se10  1  0.81852  0.48518  0.12245  1
 Se  Se11  1  0.09286  0.43384  0.61942  1
 Se  Se12  1  0.17995  0.52090  0.88058  1
 W  W1  1  0.63879  0.97228  0.25006  1
 W  W2  1  0.02713  0.69594  0.75000  1
 W  W3  1  0.30544  0.63887  0.24994  1
 W  W4  1  0.36334  0.02352  0.75000  1
 W  W5  1  0.97214  0.30552  0.25000  1
