CIF file written using JARVIS-Tools package.
data_Dy4InRh
_symmetry_space_group_name_H-M  'F-43m'
_cell_length_a       9.58403
_cell_length_b       9.58402
_cell_length_c       9.58402
_cell_angle_alpha    60
_cell_angle_beta     60
_cell_angle_gamma    60

_symmetry_Int_Tables_number  216
_chemical_formula_structural  Dy4InRh
_chemical_formula_sum  Dy6In4Rh4
_cell_volume  622.4839389610893
_cell_formula_units_Z  4
loop_
  _symmetry_equiv_pos_site_id
 _symmetry_equiv_pos_as_xyz
 1  'x, y, z'
loop_
 _atom_site_type_symbol
 _atom_site_label
 _atom_site_symmetry_multiplicity
 _atom_site_fract_x
 _atom_site_fract_y
 _atom_site_fract_z
 _atom_site_fract_occupancy
 Dy  Dy1  1  0.81037  0.81037  0.18963  1
 Dy  Dy2  1  0.18963  0.81037  0.81037  1
 Dy  Dy3  1  0.81037  0.18963  0.18963  1
 Dy  Dy4  1  0.18963  0.81037  0.18963  1
 Dy  Dy5  1  0.56224  0.93776  0.93776  1
 Dy  Dy6  1  0.93776  0.56224  0.93776  1
 Dy  Dy7  1  0.34989  0.95034  0.34989  1
 Dy  Dy8  1  0.56224  0.93776  0.56224  1
 Dy  Dy9  1  0.34989  0.34989  0.95034  1
 Dy  Dy10  1  0.93776  0.56224  0.56224  1
 Dy  Dy11  1  0.93776  0.93776  0.56224  1
 Dy  Dy12  1  0.34989  0.34989  0.34989  1
 Dy  Dy13  1  0.18963  0.18963  0.81037  1
 Dy  Dy14  1  0.81037  0.18963  0.81037  1
 Dy  Dy15  1  0.95034  0.34989  0.34989  1
 Dy  Dy16  1  0.56224  0.56224  0.93776  1
 In  In1  1  0.58331  0.58331  0.25008  1
 In  In2  1  0.25008  0.58331  0.58331  1
 In  In3  1  0.58331  0.58331  0.58331  1
 In  In4  1  0.58331  0.25008  0.58331  1
 Rh  Rh1  1  0.57279  0.14240  0.14240  1
 Rh  Rh2  1  0.14240  0.14240  0.57279  1
 Rh  Rh3  1  0.14240  0.57279  0.14240  1
 Rh  Rh4  1  0.14240  0.14240  0.14240  1
