CIF file written using JARVIS-Tools package.
data_Cr3O7
_symmetry_space_group_name_H-M  'Pmmn'
_cell_length_a       5.28422
_cell_length_b       10.3091
_cell_length_c       9.31488
_cell_angle_alpha    90
_cell_angle_beta     90
_cell_angle_gamma    90

_symmetry_Int_Tables_number  59
_chemical_formula_structural  Cr3O7
_chemical_formula_sum  Cr2O28
_cell_volume  507.43478810099725
_cell_formula_units_Z  4
loop_
  _symmetry_equiv_pos_site_id
 _symmetry_equiv_pos_as_xyz
 1  'x, y, z'
loop_
 _atom_site_type_symbol
 _atom_site_label
 _atom_site_symmetry_multiplicity
 _atom_site_fract_x
 _atom_site_fract_y
 _atom_site_fract_z
 _atom_site_fract_occupancy
 Cr  Cr1  1  0.24990  0.01669  0.31268  1
 Cr  Cr2  1  0.74985  0.25000  0.29636  1
 Cr  Cr3  1  0.74990  0.98331  0.18732  1
 Cr  Cr4  1  0.75010  0.51669  0.68732  1
 Cr  Cr5  1  0.24985  0.75000  0.20364  1
 Cr  Cr6  1  0.74990  0.51669  0.18732  1
 Cr  Cr7  1  0.25010  0.48331  0.81268  1
 Cr  Cr8  1  0.25015  0.75000  0.70364  1
 Cr  Cr9  1  0.24990  0.48331  0.31268  1
 Cr  Cr10  1  0.25010  0.01669  0.81268  1
 Cr  Cr11  1  0.75010  0.98331  0.68732  1
 Cr  Cr12  1  0.75015  0.25000  0.79636  1
 O  O1  1  0.25000  0.03919  0.98022  1
 O  O2  1  0.47986  0.61716  0.26130  1
 O  O3  1  0.02014  0.88284  0.76130  1
 O  O4  1  0.52014  0.11716  0.73870  1
 O  O5  1  0.98012  0.38283  0.73863  1
 O  O6  1  0.98012  0.11717  0.73863  1
 O  O7  1  0.01988  0.88283  0.26137  1
 O  O8  1  0.51988  0.38283  0.23863  1
 O  O9  1  0.01988  0.61717  0.26137  1
 O  O10  1  0.48012  0.88283  0.76137  1
 O  O11  1  0.97986  0.38284  0.23870  1
 O  O12  1  0.51988  0.11717  0.23863  1
 O  O13  1  0.48012  0.61717  0.76137  1
 O  O14  1  0.75000  0.96081  0.01978  1
 O  O15  1  0.25000  0.46081  0.98022  1
 O  O16  1  0.52014  0.38284  0.73870  1
 O  O17  1  0.75000  0.53919  0.01978  1
 O  O18  1  0.25000  0.03919  0.48022  1
 O  O19  1  0.47986  0.88284  0.26130  1
 O  O20  1  0.75000  0.53919  0.51978  1
 O  O21  1  0.25000  0.46081  0.48022  1
 O  O22  1  0.24979  0.75000  0.03276  1
 O  O23  1  0.75021  0.25000  0.96724  1
 O  O24  1  0.25021  0.75000  0.53276  1
 O  O25  1  0.02014  0.61716  0.76130  1
 O  O26  1  0.74979  0.25000  0.46724  1
 O  O27  1  0.97986  0.11716  0.23870  1
 O  O28  1  0.75000  0.96081  0.51978  1
