CIF file written using JARVIS-Tools package.
data_Tl4SnS3
_symmetry_space_group_name_H-M  'P4/ncc'
_cell_length_a       8.12586
_cell_length_b       8.12586
_cell_length_c       13.6567
_cell_angle_alpha    90
_cell_angle_beta     90
_cell_angle_gamma    90

_symmetry_Int_Tables_number  130
_chemical_formula_structural  Tl4SnS3
_chemical_formula_sum  Tl6Sn4S2
_cell_volume  901.7426806928106
_cell_formula_units_Z  4
loop_
  _symmetry_equiv_pos_site_id
 _symmetry_equiv_pos_as_xyz
 1  'x, y, z'
loop_
 _atom_site_type_symbol
 _atom_site_label
 _atom_site_symmetry_multiplicity
 _atom_site_fract_x
 _atom_site_fract_y
 _atom_site_fract_z
 _atom_site_fract_occupancy
 S  S1  1  0.50000  0.00000  0.92995  1
 S  S2  1  0.00000  0.50000  0.07005  1
 S  S3  1  0.66663  0.66663  0.75000  1
 S  S4  1  0.33337  0.33337  0.75000  1
 S  S5  1  0.83337  0.16663  0.75000  1
 S  S6  1  0.16663  0.83337  0.75000  1
 S  S7  1  0.83337  0.83337  0.25000  1
 S  S8  1  0.16663  0.16663  0.25000  1
 S  S9  1  0.50000  0.00000  0.42995  1
 S  S10  1  0.66663  0.33337  0.25000  1
 S  S11  1  0.00000  0.50000  0.57005  1
 S  S12  1  0.33337  0.66663  0.25000  1
 Sn  Sn1  1  0.50000  0.00000  0.24341  1
 Sn  Sn2  1  0.00000  0.50000  0.25659  1
 Sn  Sn3  1  0.00000  0.50000  0.75659  1
 Sn  Sn4  1  0.50000  0.00000  0.74341  1
 Tl  Tl1  1  0.14597  0.15563  0.60237  1
 Tl  Tl2  1  0.15563  0.14597  0.89763  1
 Tl  Tl3  1  0.65563  0.35403  0.60237  1
 Tl  Tl4  1  0.34437  0.64597  0.60237  1
 Tl  Tl5  1  0.35403  0.65563  0.89763  1
 Tl  Tl6  1  0.64597  0.34437  0.89763  1
 Tl  Tl7  1  0.65563  0.64597  0.10237  1
 Tl  Tl8  1  0.35403  0.34437  0.39763  1
 Tl  Tl9  1  0.64597  0.65563  0.39763  1
 Tl  Tl10  1  0.34437  0.35403  0.10237  1
 Tl  Tl11  1  0.84437  0.14597  0.39763  1
 Tl  Tl12  1  0.15563  0.85403  0.39763  1
 Tl  Tl13  1  0.14597  0.84437  0.10237  1
 Tl  Tl14  1  0.85403  0.15563  0.10237  1
 Tl  Tl15  1  0.85403  0.84437  0.60237  1
 Tl  Tl16  1  0.84437  0.85403  0.89763  1
