CIF file written using JARVIS-Tools package.
data_MgV3O7
_symmetry_space_group_name_H-M  'Pnma'
_cell_length_a       5.2677
_cell_length_b       10.1119
_cell_length_c       10.0581
_cell_angle_alpha    90
_cell_angle_beta     90
_cell_angle_gamma    90

_symmetry_Int_Tables_number  62
_chemical_formula_structural  MgV3O7
_chemical_formula_sum  Mg4V2O28
_cell_volume  535.7580113271474
_cell_formula_units_Z  4
loop_
  _symmetry_equiv_pos_site_id
 _symmetry_equiv_pos_as_xyz
 1  'x, y, z'
loop_
 _atom_site_type_symbol
 _atom_site_label
 _atom_site_symmetry_multiplicity
 _atom_site_fract_x
 _atom_site_fract_y
 _atom_site_fract_z
 _atom_site_fract_occupancy
 Mg  Mg1  1  0.65155  0.75000  0.91991  1
 Mg  Mg2  1  0.15154  0.25000  0.58009  1
 Mg  Mg3  1  0.34845  0.25000  0.08009  1
 Mg  Mg4  1  0.84846  0.75000  0.41991  1
 O  O1  1  0.27277  0.40741  0.46876  1
 O  O2  1  0.47294  0.38139  0.71731  1
 O  O3  1  0.22723  0.40741  0.96876  1
 O  O4  1  0.02706  0.11861  0.21731  1
 O  O5  1  0.54717  0.12119  0.21425  1
 O  O6  1  0.02706  0.38139  0.21731  1
 O  O7  1  0.52706  0.61861  0.28269  1
 O  O8  1  0.97294  0.88139  0.78269  1
 O  O9  1  0.45283  0.62119  0.78575  1
 O  O10  1  0.77277  0.59259  0.03124  1
 O  O11  1  0.95283  0.37881  0.71425  1
 O  O12  1  0.22723  0.09259  0.96876  1
 O  O13  1  0.04717  0.87881  0.28575  1
 O  O14  1  0.54717  0.37881  0.21425  1
 O  O15  1  0.04717  0.62119  0.28575  1
 O  O16  1  0.45283  0.87881  0.78575  1
 O  O17  1  0.95283  0.12119  0.71425  1
 O  O18  1  0.47294  0.11861  0.71731  1
 O  O19  1  0.27277  0.09259  0.46876  1
 O  O20  1  0.77277  0.90741  0.03124  1
 O  O21  1  0.52706  0.88139  0.28269  1
 O  O22  1  0.72723  0.59259  0.53124  1
 O  O23  1  0.97294  0.61861  0.78269  1
 O  O24  1  0.18337  0.75000  0.54833  1
 O  O25  1  0.72723  0.90741  0.53124  1
 O  O26  1  0.81663  0.25000  0.45167  1
 O  O27  1  0.31663  0.75000  0.04833  1
 O  O28  1  0.68337  0.25000  0.95167  1
 V  V1  1  0.79592  0.25000  0.28777  1
 V  V2  1  0.28690  0.02664  0.31856  1
 V  V3  1  0.78690  0.97336  0.18144  1
 V  V4  1  0.21310  0.47336  0.81856  1
 V  V5  1  0.29592  0.75000  0.21223  1
 V  V6  1  0.21310  0.02664  0.81856  1
 V  V7  1  0.70408  0.25000  0.78777  1
 V  V8  1  0.20408  0.75000  0.71223  1
 V  V9  1  0.78690  0.52664  0.18144  1
 V  V10  1  0.28690  0.47336  0.31856  1
 V  V11  1  0.71310  0.97336  0.68144  1
 V  V12  1  0.71310  0.52664  0.68144  1
