CIF file written using JARVIS-Tools package.
data_ZnSn3O7
_symmetry_space_group_name_H-M  'Pnma'
_cell_length_a       5.23343
_cell_length_b       10.2912
_cell_length_c       10.2539
_cell_angle_alpha    90
_cell_angle_beta     90
_cell_angle_gamma    90

_symmetry_Int_Tables_number  62
_chemical_formula_structural  ZnSn3O7
_chemical_formula_sum  Zn4Sn2O28
_cell_volume  552.2563928835207
_cell_formula_units_Z  4
loop_
  _symmetry_equiv_pos_site_id
 _symmetry_equiv_pos_as_xyz
 1  'x, y, z'
loop_
 _atom_site_type_symbol
 _atom_site_label
 _atom_site_symmetry_multiplicity
 _atom_site_fract_x
 _atom_site_fract_y
 _atom_site_fract_z
 _atom_site_fract_occupancy
 O  O1  1  0.81613  0.91709  0.96694  1
 O  O2  1  0.81613  0.58291  0.96694  1
 O  O3  1  0.31613  0.41709  0.53306  1
 O  O4  1  0.41937  0.37925  0.78273  1
 O  O5  1  0.18387  0.41709  0.03306  1
 O  O6  1  0.08063  0.12075  0.28273  1
 O  O7  1  0.58557  0.12125  0.25790  1
 O  O8  1  0.08063  0.37925  0.28273  1
 O  O9  1  0.58063  0.62075  0.21727  1
 O  O10  1  0.31613  0.08291  0.53306  1
 O  O11  1  0.91937  0.87925  0.71727  1
 O  O12  1  0.41443  0.62125  0.74210  1
 O  O13  1  0.91443  0.37875  0.75790  1
 O  O14  1  0.18387  0.08291  0.03306  1
 O  O15  1  0.08557  0.87875  0.24210  1
 O  O16  1  0.58557  0.37875  0.25790  1
 O  O17  1  0.08557  0.62125  0.24210  1
 O  O18  1  0.41443  0.87875  0.74210  1
 O  O19  1  0.91443  0.12125  0.75790  1
 O  O20  1  0.41937  0.12075  0.78273  1
 O  O21  1  0.68387  0.58291  0.46694  1
 O  O22  1  0.68387  0.91709  0.46694  1
 O  O23  1  0.29531  0.75000  0.95482  1
 O  O24  1  0.79531  0.25000  0.54518  1
 O  O25  1  0.70469  0.25000  0.04518  1
 O  O26  1  0.20469  0.75000  0.45482  1
 O  O27  1  0.91937  0.62075  0.71727  1
 O  O28  1  0.58063  0.87925  0.21727  1
 Sn  Sn1  1  0.64084  0.01529  0.64034  1
 Sn  Sn2  1  0.35916  0.51529  0.35966  1
 Sn  Sn3  1  0.85916  0.48471  0.14034  1
 Sn  Sn4  1  0.17639  0.75000  0.64423  1
 Sn  Sn5  1  0.67639  0.25000  0.85577  1
 Sn  Sn6  1  0.32361  0.75000  0.14423  1
 Sn  Sn7  1  0.14084  0.51529  0.85966  1
 Sn  Sn8  1  0.64084  0.48471  0.64034  1
 Sn  Sn9  1  0.85916  0.01529  0.14034  1
 Sn  Sn10  1  0.35916  0.98471  0.35966  1
 Sn  Sn11  1  0.82361  0.25000  0.35577  1
 Sn  Sn12  1  0.14084  0.98471  0.85966  1
 Zn  Zn1  1  0.83772  0.75000  0.36959  1
 Zn  Zn2  1  0.33772  0.25000  0.13041  1
 Zn  Zn3  1  0.16228  0.25000  0.63041  1
 Zn  Zn4  1  0.66228  0.75000  0.86959  1
