CIF file written using JARVIS-Tools package.
data_TlInO2
_symmetry_space_group_name_H-M  'R-3m'
_cell_length_a       6.7458
_cell_length_b       6.7458
_cell_length_c       6.74581
_cell_angle_alpha    28.8895
_cell_angle_beta     28.8894
_cell_angle_gamma    28.8894

_symmetry_Int_Tables_number  166
_chemical_formula_structural  TlInO2
_chemical_formula_sum  TlInO2
_cell_volume  63.36301791726413
_cell_formula_units_Z  1
loop_
  _symmetry_equiv_pos_site_id
 _symmetry_equiv_pos_as_xyz
 1  'x, y, z'
loop_
 _atom_site_type_symbol
 _atom_site_label
 _atom_site_symmetry_multiplicity
 _atom_site_fract_x
 _atom_site_fract_y
 _atom_site_fract_z
 _atom_site_fract_occupancy
 In  In1  1  0.50000  0.50000  0.50000  1
 O  O1  1  0.22446  0.22446  0.22446  1
 O  O2  1  0.77554  0.77554  0.77554  1
 Tl  Tl1  1  0.00000  0.00000  0.00000  1
