CIF file written using JARVIS-Tools package.
data_TaTiWC3
_symmetry_space_group_name_H-M  'P3m1'
_cell_length_a       3.11408
_cell_length_b       3.11408
_cell_length_c       7.62317
_cell_angle_alpha    90
_cell_angle_beta     90
_cell_angle_gamma    120

_symmetry_Int_Tables_number  156
_chemical_formula_structural  TaTiWC3
_chemical_formula_sum  TaTiWC3
_cell_volume  64.02160535782643
_cell_formula_units_Z  1
loop_
  _symmetry_equiv_pos_site_id
 _symmetry_equiv_pos_as_xyz
 1  'x, y, z'
loop_
 _atom_site_type_symbol
 _atom_site_label
 _atom_site_symmetry_multiplicity
 _atom_site_fract_x
 _atom_site_fract_y
 _atom_site_fract_z
 _atom_site_fract_occupancy
 C  C1  1  0.33333  0.66667  0.66604  1
 C  C2  1  0.00000  0.00000  0.99568  1
 C  C3  1  0.66667  0.33333  0.33720  1
 Ta  Ta1  1  0.33333  0.66667  0.16855  1
 Ti  Ti1  1  0.00000  0.00000  0.50344  1
 W  W1  1  0.66667  0.33333  0.82909  1
