CIF file written using JARVIS-Tools package.
data_SrNdGaO4
_symmetry_space_group_name_H-M  'I4mm'
_cell_length_a       6.82838
_cell_length_b       6.82838
_cell_length_c       6.82838
_cell_angle_alpha    147.308
_cell_angle_beta     147.308
_cell_angle_gamma    46.9083

_symmetry_Int_Tables_number  107
_chemical_formula_structural  SrNdGaO4
_chemical_formula_sum  SrNdGaO4
_cell_volume  92.53993640012807
_cell_formula_units_Z  1
loop_
  _symmetry_equiv_pos_site_id
 _symmetry_equiv_pos_as_xyz
 1  'x, y, z'
loop_
 _atom_site_type_symbol
 _atom_site_label
 _atom_site_symmetry_multiplicity
 _atom_site_fract_x
 _atom_site_fract_y
 _atom_site_fract_z
 _atom_site_fract_occupancy
 Ga  Ga1  1  0.00640  0.00640  -0.00000  1
 Nd  Nd1  1  0.35997  0.35997  -0.00000  1
 O  O1  1  0.99211  0.49211  0.50000  1
 O  O2  1  0.49211  0.99211  0.50000  1
 O  O3  1  0.83474  0.83474  -0.00000  1
 O  O4  1  0.17088  0.17088  0.00000  1
 Sr  Sr1  1  0.64380  0.64380  -0.00000  1
