CIF file written using JARVIS-Tools package.
data_Sr2NiO3F
_symmetry_space_group_name_H-M  'I4mm'
_cell_length_a       7.1232
_cell_length_b       7.1232
_cell_length_c       7.1232
_cell_angle_alpha    149.396
_cell_angle_beta     149.396
_cell_angle_gamma    43.8283

_symmetry_Int_Tables_number  107
_chemical_formula_structural  Sr2NiO3F
_chemical_formula_sum  Sr2NiO3F
_cell_volume  93.41266153004193
_cell_formula_units_Z  1
loop_
  _symmetry_equiv_pos_site_id
 _symmetry_equiv_pos_as_xyz
 1  'x, y, z'
loop_
 _atom_site_type_symbol
 _atom_site_label
 _atom_site_symmetry_multiplicity
 _atom_site_fract_x
 _atom_site_fract_y
 _atom_site_fract_z
 _atom_site_fract_occupancy
 F  F1  1  0.17597  0.17597  0.00000  1
 Ni  Ni1  1  0.97729  0.97729  0.00000  1
 O  O1  1  0.50280  0.00280  0.50000  1
 O  O2  1  0.00280  0.50280  0.50000  1
 O  O3  1  0.82781  0.82781  -0.00000  1
 Sr  Sr1  1  0.63445  0.63445  0.00000  1
 Sr  Sr2  1  0.36138  0.36138  -0.00000  1
