CIF file written using JARVIS-Tools package.
data_La3Ti
_symmetry_space_group_name_H-M  'P6_3/mmc'
_cell_length_a       7.14845
_cell_length_b       7.14845
_cell_length_c       5.58639
_cell_angle_alpha    90
_cell_angle_beta     90
_cell_angle_gamma    120

_symmetry_Int_Tables_number  194
_chemical_formula_structural  La3Ti
_chemical_formula_sum  La6Ti2
_cell_volume  247.22167916903786
_cell_formula_units_Z  2
loop_
  _symmetry_equiv_pos_site_id
 _symmetry_equiv_pos_as_xyz
 1  'x, y, z'
loop_
 _atom_site_type_symbol
 _atom_site_label
 _atom_site_symmetry_multiplicity
 _atom_site_fract_x
 _atom_site_fract_y
 _atom_site_fract_z
 _atom_site_fract_occupancy
 La  La1  1  0.17608  0.35215  0.25000  1
 La  La2  1  0.64785  0.82392  0.25000  1
 La  La3  1  0.17608  0.82392  0.25000  1
 La  La4  1  0.82392  0.64785  0.75000  1
 La  La5  1  0.35215  0.17608  0.75000  1
 La  La6  1  0.82392  0.17608  0.75000  1
 Ti  Ti1  1  0.33333  0.66667  0.75000  1
 Ti  Ti2  1  0.66667  0.33333  0.25000  1
