CIF file written using JARVIS-Tools package.
data_NiRh
_symmetry_space_group_name_H-M  'R-3m'
_cell_length_a       4.44921
_cell_length_b       4.44921
_cell_length_c       4.44921
_cell_angle_alpha    34.5516
_cell_angle_beta     34.5516
_cell_angle_gamma    34.5515

_symmetry_Int_Tables_number  166
_chemical_formula_structural  NiRh
_chemical_formula_sum  NiRh
_cell_volume  25.275610781169235
_cell_formula_units_Z  1
loop_
  _symmetry_equiv_pos_site_id
 _symmetry_equiv_pos_as_xyz
 1  'x, y, z'
loop_
 _atom_site_type_symbol
 _atom_site_label
 _atom_site_symmetry_multiplicity
 _atom_site_fract_x
 _atom_site_fract_y
 _atom_site_fract_z
 _atom_site_fract_occupancy
 Ni  Ni1  1  0.00000  0.00000  0.00000  1
 Rh  Rh1  1  0.50000  0.50000  0.50000  1
