CIF file written using JARVIS-Tools package.
data_SmMg5
_symmetry_space_group_name_H-M  'C2/m'
_cell_length_a       7.19836
_cell_length_b       7.19836
_cell_length_c       6.7304
_cell_angle_alpha    77.2599
_cell_angle_beta     77.2599
_cell_angle_gamma    25.7128

_symmetry_Int_Tables_number  12
_chemical_formula_structural  SmMg5
_chemical_formula_sum  SmMg5
_cell_volume  147.38466602910896
_cell_formula_units_Z  1
loop_
  _symmetry_equiv_pos_site_id
 _symmetry_equiv_pos_as_xyz
 1  'x, y, z'
loop_
 _atom_site_type_symbol
 _atom_site_label
 _atom_site_symmetry_multiplicity
 _atom_site_fract_x
 _atom_site_fract_y
 _atom_site_fract_z
 _atom_site_fract_occupancy
 Mg  Mg1  1  0.17448  0.17448  0.66966  1
 Mg  Mg2  1  0.83049  0.83049  0.84458  1
 Mg  Mg3  1  0.50000  0.50000  0.00000  1
 Mg  Mg4  1  0.16951  0.16951  0.15542  1
 Mg  Mg5  1  0.82552  0.82552  0.33034  1
 Sm  Sm1  1  0.50000  0.50000  0.50000  1
