CIF file written using JARVIS-Tools package.
data_TbNa2O3
_symmetry_space_group_name_H-M  'Immm'
_cell_length_a       5.92246
_cell_length_b       5.92245
_cell_length_c       5.92245
_cell_angle_alpha    146.52
_cell_angle_beta     133.752
_cell_angle_gamma    58.2905

_symmetry_Int_Tables_number  71
_chemical_formula_structural  TbNa2O3
_chemical_formula_sum  TbNa2O3
_cell_volume  82.09178655693033
_cell_formula_units_Z  1
loop_
  _symmetry_equiv_pos_site_id
 _symmetry_equiv_pos_as_xyz
 1  'x, y, z'
loop_
 _atom_site_type_symbol
 _atom_site_label
 _atom_site_symmetry_multiplicity
 _atom_site_fract_x
 _atom_site_fract_y
 _atom_site_fract_z
 _atom_site_fract_occupancy
 Na  Na1  1  0.67704  0.67704  0.00000  1
 Na  Na2  1  0.32296  0.32296  0.00000  1
 O  O1  1  0.50000  0.00000  0.50000  1
 O  O2  1  0.14734  0.64734  0.50000  1
 O  O3  1  0.85266  0.35266  0.50000  1
 Tb  Tb1  1  0.00000  0.00000  0.00000  1
