CIF file written using JARVIS-Tools package.
data_MnZn4Se5
_symmetry_space_group_name_H-M  'Cm'
_cell_length_a       7.04148
_cell_length_b       7.04147
_cell_length_c       9.96484
_cell_angle_alpha    61.9737
_cell_angle_beta     61.9737
_cell_angle_gamma    33.5491

_symmetry_Int_Tables_number  8
_chemical_formula_structural  MnZn4Se5
_chemical_formula_sum  MnZn4Se5
_cell_volume  237.91113787567764
_cell_formula_units_Z  1
loop_
  _symmetry_equiv_pos_site_id
 _symmetry_equiv_pos_as_xyz
 1  'x, y, z'
loop_
 _atom_site_type_symbol
 _atom_site_label
 _atom_site_symmetry_multiplicity
 _atom_site_fract_x
 _atom_site_fract_y
 _atom_site_fract_z
 _atom_site_fract_occupancy
 Mn  Mn1  1  0.00098  0.00098  0.99900  1
 Se  Se1  1  0.79887  0.79887  0.55178  1
 Se  Se2  1  0.39725  0.39725  0.15499  1
 Se  Se3  1  0.00167  0.00167  0.74594  1
 Se  Se4  1  0.59877  0.59877  0.34891  1
 Se  Se5  1  0.20295  0.20295  0.94927  1
 Zn  Zn1  1  0.60069  0.60069  0.59636  1
 Zn  Zn2  1  0.19904  0.19904  0.20131  1
 Zn  Zn3  1  0.80167  0.80167  0.79907  1
 Zn  Zn4  1  0.39812  0.39812  0.40337  1
