CIF file written using JARVIS-Tools package.
data_Mo2N
_symmetry_space_group_name_H-M  'R-3m'
_cell_length_a       5.26429
_cell_length_b       5.26429
_cell_length_c       5.26429
_cell_angle_alpha    31.9592
_cell_angle_beta     31.9592
_cell_angle_gamma    31.9593

_symmetry_Int_Tables_number  166
_chemical_formula_structural  Mo2N
_chemical_formula_sum  Mo2N
_cell_volume  36.31406996969164
_cell_formula_units_Z  1
loop_
  _symmetry_equiv_pos_site_id
 _symmetry_equiv_pos_as_xyz
 1  'x, y, z'
loop_
 _atom_site_type_symbol
 _atom_site_label
 _atom_site_symmetry_multiplicity
 _atom_site_fract_x
 _atom_site_fract_y
 _atom_site_fract_z
 _atom_site_fract_occupancy
 Mo  Mo1  1  0.75727  0.75727  0.75727  1
 Mo  Mo2  1  0.24273  0.24273  0.24273  1
 N  N1  1  0.00000  0.00000  0.00000  1
