CIF file written using JARVIS-Tools package.
data_TbCo2Ni3
_symmetry_space_group_name_H-M  'Cmmm'
_cell_length_a       3.96484
_cell_length_b       4.91534
_cell_length_c       4.74608
_cell_angle_alpha    61.1247
_cell_angle_beta     90
_cell_angle_gamma    90

_symmetry_Int_Tables_number  65
_chemical_formula_structural  TbCo2Ni3
_chemical_formula_sum  TbCo2Ni3
_cell_volume  80.99450834290138
_cell_formula_units_Z  1
loop_
  _symmetry_equiv_pos_site_id
 _symmetry_equiv_pos_as_xyz
 1  'x, y, z'
loop_
 _atom_site_type_symbol
 _atom_site_label
 _atom_site_symmetry_multiplicity
 _atom_site_fract_x
 _atom_site_fract_y
 _atom_site_fract_z
 _atom_site_fract_occupancy
 Co  Co1  1  0.50000  0.49998  0.50001  1
 Co  Co2  1  0.50000  0.49998  0.00002  1
 Ni  Ni1  1  0.50000  -0.00002  0.50002  1
 Ni  Ni2  1  0.00000  0.34033  0.32977  1
 Ni  Ni3  1  0.00000  0.65963  0.67026  1
 Tb  Tb1  1  0.00000  0.99998  0.00002  1
