CIF file written using JARVIS-Tools package.
data_InBi3Se6
_symmetry_space_group_name_H-M  'R3m'
_cell_length_a       19.3812
_cell_length_b       19.3812
_cell_length_c       19.3812
_cell_angle_alpha    12.2964
_cell_angle_beta     12.2964
_cell_angle_gamma    12.2964

_symmetry_Int_Tables_number  160
_chemical_formula_structural  InBi3Se6
_chemical_formula_sum  InBi3Se6
_cell_volume  287.05676524892783
_cell_formula_units_Z  1
loop_
  _symmetry_equiv_pos_site_id
 _symmetry_equiv_pos_as_xyz
 1  'x, y, z'
loop_
 _atom_site_type_symbol
 _atom_site_label
 _atom_site_symmetry_multiplicity
 _atom_site_fract_x
 _atom_site_fract_y
 _atom_site_fract_z
 _atom_site_fract_occupancy
 Bi  Bi1  1  0.70005  0.70005  0.70005  1
 Bi  Bi2  1  0.29867  0.29867  0.29867  1
 Bi  Bi3  1  0.80190  0.80190  0.80190  1
 In  In1  1  0.20060  0.20060  0.20060  1
 Se  Se1  1  0.60434  0.60434  0.60434  1
 Se  Se2  1  0.10765  0.10765  0.10765  1
 Se  Se3  1  0.88984  0.88984  0.88984  1
 Se  Se4  1  0.39456  0.39456  0.39456  1
 Se  Se5  1  0.99955  0.99955  0.99955  1
 Se  Se6  1  0.50283  0.50283  0.50283  1
