CIF file written using JARVIS-Tools package.
data_MnVP2
_symmetry_space_group_name_H-M  'Pmc2_1'
_cell_length_a       3.1187
_cell_length_b       5.34998
_cell_length_c       6.04566
_cell_angle_alpha    90
_cell_angle_beta     90
_cell_angle_gamma    90

_symmetry_Int_Tables_number  26
_chemical_formula_structural  MnVP2
_chemical_formula_sum  Mn2V2P4
_cell_volume  100.87171523652489
_cell_formula_units_Z  2
loop_
  _symmetry_equiv_pos_site_id
 _symmetry_equiv_pos_as_xyz
 1  'x, y, z'
loop_
 _atom_site_type_symbol
 _atom_site_label
 _atom_site_symmetry_multiplicity
 _atom_site_fract_x
 _atom_site_fract_y
 _atom_site_fract_z
 _atom_site_fract_occupancy
 Mn  Mn1  1  0.50000  0.49100  0.05998  1
 Mn  Mn2  1  0.50000  0.99100  0.94002  1
 P  P1  1  0.50000  0.31157  0.69659  1
 P  P2  1  0.50000  0.81157  0.30341  1
 P  P3  1  0.00000  0.69304  0.82908  1
 P  P4  1  0.00000  0.19304  0.17092  1
 V  V1  1  0.00000  0.50439  0.45120  1
 V  V2  1  0.00000  0.00439  0.54880  1
