CIF file written using JARVIS-Tools package.
data_GeBiPd6
_symmetry_space_group_name_H-M  'R-3m'
_cell_length_a       7.86257
_cell_length_b       7.86257
_cell_length_c       7.86257
_cell_angle_alpha    33.6435
_cell_angle_beta     33.6435
_cell_angle_gamma    33.6435

_symmetry_Int_Tables_number  166
_chemical_formula_structural  GeBiPd6
_chemical_formula_sum  GeBiPd6
_cell_volume  132.90905344473458
_cell_formula_units_Z  1
loop_
  _symmetry_equiv_pos_site_id
 _symmetry_equiv_pos_as_xyz
 1  'x, y, z'
loop_
 _atom_site_type_symbol
 _atom_site_label
 _atom_site_symmetry_multiplicity
 _atom_site_fract_x
 _atom_site_fract_y
 _atom_site_fract_z
 _atom_site_fract_occupancy
 Bi  Bi1  1  0.00000  0.00000  0.00000  1
 Ge  Ge1  1  0.50000  0.50000  0.50000  1
 Pd  Pd1  1  0.61260  0.61260  0.61260  1
 Pd  Pd2  1  0.13325  0.13325  0.13325  1
 Pd  Pd3  1  0.86675  0.86675  0.86675  1
 Pd  Pd4  1  0.38740  0.38740  0.38740  1
 Pd  Pd5  1  0.25493  0.25493  0.25493  1
 Pd  Pd6  1  0.74507  0.74507  0.74507  1
