CIF file written using JARVIS-Tools package.
data_Li5TlIn
_symmetry_space_group_name_H-M  'R3m'
_cell_length_a       7.2952
_cell_length_b       7.29519
_cell_length_c       7.29519
_cell_angle_alpha    37.447
_cell_angle_beta     37.447
_cell_angle_gamma    37.447

_symmetry_Int_Tables_number  160
_chemical_formula_structural  Li5TlIn
_chemical_formula_sum  Li5TlIn
_cell_volume  128.71294332740018
_cell_formula_units_Z  1
loop_
  _symmetry_equiv_pos_site_id
 _symmetry_equiv_pos_as_xyz
 1  'x, y, z'
loop_
 _atom_site_type_symbol
 _atom_site_label
 _atom_site_symmetry_multiplicity
 _atom_site_fract_x
 _atom_site_fract_y
 _atom_site_fract_z
 _atom_site_fract_occupancy
 In  In1  1  0.92625  0.92625  0.92625  1
 Li  Li1  1  0.64539  0.64539  0.64539  1
 Li  Li2  1  0.35300  0.35300  0.35300  1
 Li  Li3  1  0.50139  0.50139  0.50139  1
 Li  Li4  1  0.78728  0.78728  0.78728  1
 Li  Li5  1  0.21234  0.21234  0.21234  1
 Tl  Tl1  1  0.07436  0.07436  0.07436  1
