CIF file written using JARVIS-Tools package.
data_Hf2NiS4
_symmetry_space_group_name_H-M  'C2/m'
_cell_length_a       6.74139
_cell_length_b       6.74139
_cell_length_c       6.15028
_cell_angle_alpha    63.4104
_cell_angle_beta     63.4104
_cell_angle_gamma    30.6356

_symmetry_Int_Tables_number  12
_chemical_formula_structural  Hf2NiS4
_chemical_formula_sum  Hf2NiS4
_cell_volume  126.16356734032328
_cell_formula_units_Z  1
loop_
  _symmetry_equiv_pos_site_id
 _symmetry_equiv_pos_as_xyz
 1  'x, y, z'
loop_
 _atom_site_type_symbol
 _atom_site_label
 _atom_site_symmetry_multiplicity
 _atom_site_fract_x
 _atom_site_fract_y
 _atom_site_fract_z
 _atom_site_fract_occupancy
 Hf  Hf1  1  0.74297  0.74297  0.25482  1
 Hf  Hf2  1  0.25703  0.25703  0.74518  1
 Ni  Ni1  1  0.00000  0.00000  0.00000  1
 S  S1  1  0.11620  0.11620  0.20756  1
 S  S2  1  0.61949  0.61949  0.71708  1
 S  S3  1  0.38051  0.38051  0.28292  1
 S  S4  1  0.88380  0.88380  0.79244  1
