CIF file written using JARVIS-Tools package.
data_KSrBi2O6
_symmetry_space_group_name_H-M  'I-42m'
_cell_length_a       6.06852
_cell_length_b       6.06852
_cell_length_c       6.06851
_cell_angle_alpha    121.127
_cell_angle_beta     121.127
_cell_angle_gamma    88.0582

_symmetry_Int_Tables_number  121
_chemical_formula_structural  KSrBi2O6
_chemical_formula_sum  KSrBi2O6
_cell_volume  155.2379065852809
_cell_formula_units_Z  1
loop_
  _symmetry_equiv_pos_site_id
 _symmetry_equiv_pos_as_xyz
 1  'x, y, z'
loop_
 _atom_site_type_symbol
 _atom_site_label
 _atom_site_symmetry_multiplicity
 _atom_site_fract_x
 _atom_site_fract_y
 _atom_site_fract_z
 _atom_site_fract_occupancy
 Bi  Bi1  1  0.75000  0.25000  0.50000  1
 Bi  Bi2  1  0.25000  0.75000  0.50000  1
 K  K1  1  0.00000  0.00000  0.00000  1
 O  O1  1  0.45212  0.07870  0.00000  1
 O  O2  1  0.07870  0.45212  0.00000  1
 O  O3  1  0.54788  0.54788  0.62658  1
 O  O4  1  0.92130  0.92130  0.37342  1
 O  O5  1  0.50000  0.00000  0.50000  1
 O  O6  1  -0.00000  0.50000  0.50000  1
 Sr  Sr1  1  0.50000  0.50000  -0.00000  1
