CIF file written using JARVIS-Tools package.
data_NaNiO2
_symmetry_space_group_name_H-M  'P6_3/mmc'
_cell_length_a       2.96629
_cell_length_b       2.9716
_cell_length_c       10.4301
_cell_angle_alpha    89.9652
_cell_angle_beta     90.0173
_cell_angle_gamma    120.025

_symmetry_Int_Tables_number  194
_chemical_formula_structural  NaNiO2
_chemical_formula_sum  Na2Ni2O4
_cell_volume  79.59988199114136
_cell_formula_units_Z  2
loop_
  _symmetry_equiv_pos_site_id
 _symmetry_equiv_pos_as_xyz
 1  'x, y, z'
loop_
 _atom_site_type_symbol
 _atom_site_label
 _atom_site_symmetry_multiplicity
 _atom_site_fract_x
 _atom_site_fract_y
 _atom_site_fract_z
 _atom_site_fract_occupancy
 Na  Na1  1  0.66695  0.33363  0.25000  1
 Na  Na2  1  0.33306  0.66637  0.75000  1
 Ni  Ni1  1  -0.00000  -0.00000  0.50000  1
 Ni  Ni2  1  0.00000  -0.00000  0.00000  1
 O  O1  1  0.33420  0.66748  0.40403  1
 O  O2  1  0.66580  0.33252  0.59597  1
 O  O3  1  0.66581  0.33269  0.90403  1
 O  O4  1  0.33418  0.66731  0.09597  1
