CIF file written using JARVIS-Tools package.
data_VIn3Se4
_symmetry_space_group_name_H-M  'I-43m'
_cell_length_a       6.66908
_cell_length_b       6.66908
_cell_length_c       6.66908
_cell_angle_alpha    109.471
_cell_angle_beta     109.471
_cell_angle_gamma    109.471

_symmetry_Int_Tables_number  217
_chemical_formula_structural  VIn3Se4
_chemical_formula_sum  VIn3Se4
_cell_volume  228.3370513830905
_cell_formula_units_Z  1
loop_
  _symmetry_equiv_pos_site_id
 _symmetry_equiv_pos_as_xyz
 1  'x, y, z'
loop_
 _atom_site_type_symbol
 _atom_site_label
 _atom_site_symmetry_multiplicity
 _atom_site_fract_x
 _atom_site_fract_y
 _atom_site_fract_z
 _atom_site_fract_occupancy
 In  In1  1  0.50000  0.50000  -0.00000  1
 In  In2  1  -0.00000  0.50000  0.50000  1
 In  In3  1  0.50000  0.00000  0.50000  1
 Se  Se1  1  0.34501  0.00000  0.00000  1
 Se  Se2  1  0.00000  0.00000  0.34501  1
 Se  Se3  1  0.65499  0.65499  0.65499  1
 Se  Se4  1  0.00000  0.34501  0.00000  1
 V  V1  1  0.00000  0.00000  0.00000  1
