CIF file written using JARVIS-Tools package.
data_In2CuTe3Br
_symmetry_space_group_name_H-M  'P1'
_cell_length_a       6.23696
_cell_length_b       6.11866
_cell_length_c       7.50292
_cell_angle_alpha    66.8406
_cell_angle_beta     65.7792
_cell_angle_gamma    89.7072

_symmetry_Int_Tables_number  1
_chemical_formula_structural  In2CuTe3Br
_chemical_formula_sum  In2CuTe3Br
_cell_volume  235.87255461460023
_cell_formula_units_Z  1
loop_
  _symmetry_equiv_pos_site_id
 _symmetry_equiv_pos_as_xyz
 1  'x, y, z'
loop_
 _atom_site_type_symbol
 _atom_site_label
 _atom_site_symmetry_multiplicity
 _atom_site_fract_x
 _atom_site_fract_y
 _atom_site_fract_z
 _atom_site_fract_occupancy
 Br  Br1  1  0.11361  0.12324  0.25497  1
 Cu  Cu1  1  0.57467  0.55134  0.96478  1
 In  In1  1  0.98963  0.96964  0.00043  1
 In  In2  1  0.71677  0.24574  0.52715  1
 Te  Te1  1  0.92115  0.41338  0.73268  1
 Te  Te2  1  0.37382  0.81644  0.74319  1
 Te  Te3  1  0.56035  0.63022  0.27681  1
