CIF file written using JARVIS-Tools package.
data_Li2Ni3O3F2
_symmetry_space_group_name_H-M  'I4/mmm'
_cell_length_a       10.9526
_cell_length_b       10.9526
_cell_length_c       10.9526
_cell_angle_alpha    164.932
_cell_angle_beta     164.932
_cell_angle_gamma    21.3723

_symmetry_Int_Tables_number  139
_chemical_formula_structural  Li2Ni3O3F2
_chemical_formula_sum  Li2Ni3O3F2
_cell_volume  88.78456910320888
_cell_formula_units_Z  1
loop_
  _symmetry_equiv_pos_site_id
 _symmetry_equiv_pos_as_xyz
 1  'x, y, z'
loop_
 _atom_site_type_symbol
 _atom_site_label
 _atom_site_symmetry_multiplicity
 _atom_site_fract_x
 _atom_site_fract_y
 _atom_site_fract_z
 _atom_site_fract_occupancy
 F  F1  1  0.20477  0.20477  0.00000  1
 F  F2  1  0.79523  0.79523  -0.00000  1
 Li  Li1  1  0.70161  0.70161  0.00000  1
 Li  Li2  1  0.29839  0.29839  -0.00000  1
 Ni  Ni1  1  0.89998  0.89998  0.00000  1
 Ni  Ni2  1  0.50000  0.50000  0.00000  1
 Ni  Ni3  1  0.10002  0.10002  -0.00000  1
 O  O1  1  0.39916  0.39916  0.00000  1
 O  O2  1  0.00000  0.00000  0.00000  1
 O  O3  1  0.60084  0.60084  -0.00000  1
