CIF file written using JARVIS-Tools package.
data_AsNO2F6
_symmetry_space_group_name_H-M  'C2/m'
_cell_length_a       5.17796
_cell_length_b       5.17796
_cell_length_c       4.68043
_cell_angle_alpha    88.8176
_cell_angle_beta     88.8176
_cell_angle_gamma    87.0654

_symmetry_Int_Tables_number  12
_chemical_formula_structural  AsNO2F6
_chemical_formula_sum  AsNO2F6
_cell_volume  125.27278286527589
_cell_formula_units_Z  1
loop_
  _symmetry_equiv_pos_site_id
 _symmetry_equiv_pos_as_xyz
 1  'x, y, z'
loop_
 _atom_site_type_symbol
 _atom_site_label
 _atom_site_symmetry_multiplicity
 _atom_site_fract_x
 _atom_site_fract_y
 _atom_site_fract_z
 _atom_site_fract_occupancy
 As  As1  1  0.00000  0.00000  0.00000  1
 F  F1  1  0.19745  0.19745  0.78332  1
 F  F2  1  0.73096  0.08298  0.78171  1
 F  F3  1  0.08298  0.73096  0.78171  1
 F  F4  1  0.91702  0.26904  0.21829  1
 F  F5  1  0.26904  0.91702  0.21829  1
 F  F6  1  0.80255  0.80255  0.21668  1
 N  N1  1  0.50000  0.50000  0.50000  1
 O  O1  1  0.58757  0.58757  0.69422  1
 O  O2  1  0.41243  0.41243  0.30578  1
