CIF file written using JARVIS-Tools package.
data_Fe2PtRh
_symmetry_space_group_name_H-M  'P4/mmm'
_cell_length_a       2.70594
_cell_length_b       2.70594
_cell_length_c       7.37548
_cell_angle_alpha    90
_cell_angle_beta     90
_cell_angle_gamma    90

_symmetry_Int_Tables_number  123
_chemical_formula_structural  Fe2PtRh
_chemical_formula_sum  Fe2PtRh
_cell_volume  54.00410830426729
_cell_formula_units_Z  1
loop_
  _symmetry_equiv_pos_site_id
 _symmetry_equiv_pos_as_xyz
 1  'x, y, z'
loop_
 _atom_site_type_symbol
 _atom_site_label
 _atom_site_symmetry_multiplicity
 _atom_site_fract_x
 _atom_site_fract_y
 _atom_site_fract_z
 _atom_site_fract_occupancy
 Fe  Fe1  1  0.50000  0.50000  0.74358  1
 Fe  Fe2  1  0.50000  0.50000  0.25642  1
 Pt  Pt1  1  0.00000  0.00000  0.00000  1
 Rh  Rh1  1  0.00000  0.00000  0.50000  1
