CIF file written using JARVIS-Tools package.
data_Pm3Hg
_symmetry_space_group_name_H-M  'P6_3/mmc'
_cell_length_a       7.00741
_cell_length_b       7.00742
_cell_length_c       5.49505
_cell_angle_alpha    90
_cell_angle_beta     90
_cell_angle_gamma    120

_symmetry_Int_Tables_number  194
_chemical_formula_structural  Pm3Hg
_chemical_formula_sum  Pm6Hg2
_cell_volume  233.67806918287982
_cell_formula_units_Z  2
loop_
  _symmetry_equiv_pos_site_id
 _symmetry_equiv_pos_as_xyz
 1  'x, y, z'
loop_
 _atom_site_type_symbol
 _atom_site_label
 _atom_site_symmetry_multiplicity
 _atom_site_fract_x
 _atom_site_fract_y
 _atom_site_fract_z
 _atom_site_fract_occupancy
 Hg  Hg1  1  0.33333  0.66667  0.75000  1
 Hg  Hg2  1  0.66667  0.33333  0.25000  1
 Pm  Pm1  1  0.17439  0.34878  0.25000  1
 Pm  Pm2  1  0.65122  0.82561  0.25000  1
 Pm  Pm3  1  0.17439  0.82561  0.25000  1
 Pm  Pm4  1  0.82561  0.65122  0.75000  1
 Pm  Pm5  1  0.34878  0.17439  0.75000  1
 Pm  Pm6  1  0.82561  0.17439  0.75000  1
