CIF file written using JARVIS-Tools package.
data_Na2FeO2
_symmetry_space_group_name_H-M  'Immm'
_cell_length_a       2.83868
_cell_length_b       5.49022
_cell_length_c       8.54621
_cell_angle_alpha    100.676
_cell_angle_beta     80.4384
_cell_angle_gamma    104.982

_symmetry_Int_Tables_number  71
_chemical_formula_structural  Na2FeO2
_chemical_formula_sum  Na4Fe2O4
_cell_volume  125.45306129270607
_cell_formula_units_Z  2
loop_
  _symmetry_equiv_pos_site_id
 _symmetry_equiv_pos_as_xyz
 1  'x, y, z'
loop_
 _atom_site_type_symbol
 _atom_site_label
 _atom_site_symmetry_multiplicity
 _atom_site_fract_x
 _atom_site_fract_y
 _atom_site_fract_z
 _atom_site_fract_occupancy
 Fe  Fe1  1  0.00000  0.50000  0.50000  1
 Fe  Fe2  1  1.00000  0.00000  -0.00000  1
 Na  Na1  1  0.67482  0.51226  0.16258  1
 Na  Na2  1  0.67482  0.01226  0.66258  1
 Na  Na3  1  0.32518  0.98774  0.33742  1
 Na  Na4  1  0.32518  0.48774  0.83742  1
 O  O1  1  0.36667  0.80001  0.06666  1
 O  O2  1  0.36667  0.30001  0.56666  1
 O  O3  1  0.63333  0.69999  0.43334  1
 O  O4  1  0.63333  0.19999  0.93334  1
