CIF file written using JARVIS-Tools package.
data_La2O3
_symmetry_space_group_name_H-M  'P6/mmm'
_cell_length_a       6.34878
_cell_length_b       6.34874
_cell_length_c       3.29079
_cell_angle_alpha    89.9986
_cell_angle_beta     90.0019
_cell_angle_gamma    120.002

_symmetry_Int_Tables_number  191
_chemical_formula_structural  La2O3
_chemical_formula_sum  La2O3
_cell_volume  114.86827564394228
_cell_formula_units_Z  1
loop_
  _symmetry_equiv_pos_site_id
 _symmetry_equiv_pos_as_xyz
 1  'x, y, z'
loop_
 _atom_site_type_symbol
 _atom_site_label
 _atom_site_symmetry_multiplicity
 _atom_site_fract_x
 _atom_site_fract_y
 _atom_site_fract_z
 _atom_site_fract_occupancy
 La  La1  1  0.33334  0.66667  0.50008  1
 La  La2  1  0.66667  0.33334  0.49991  1
 O  O1  1  0.49996  0.49996  0.00000  1
 O  O2  1  0.00000  0.50004  0.00000  1
 O  O3  1  0.50004  0.00000  0.00000  1
