CIF file written using JARVIS-Tools package.
data_Fe2AsP
_symmetry_space_group_name_H-M  'Pmc2_1'
_cell_length_a       3.2326
_cell_length_b       5.25879
_cell_length_c       5.91673
_cell_angle_alpha    90
_cell_angle_beta     90
_cell_angle_gamma    90

_symmetry_Int_Tables_number  26
_chemical_formula_structural  Fe2AsP
_chemical_formula_sum  Fe4As2P2
_cell_volume  100.58179991512529
_cell_formula_units_Z  2
loop_
  _symmetry_equiv_pos_site_id
 _symmetry_equiv_pos_as_xyz
 1  'x, y, z'
loop_
 _atom_site_type_symbol
 _atom_site_label
 _atom_site_symmetry_multiplicity
 _atom_site_fract_x
 _atom_site_fract_y
 _atom_site_fract_z
 _atom_site_fract_occupancy
 As  As1  1  0.50000  0.30418  0.67427  1
 As  As2  1  0.50000  0.80418  0.32573  1
 Fe  Fe1  1  0.50000  0.50198  0.03947  1
 Fe  Fe2  1  0.50000  0.00198  0.96053  1
 Fe  Fe3  1  0.00000  0.48882  0.43785  1
 Fe  Fe4  1  0.00000  0.98882  0.56215  1
 P  P1  1  0.00000  0.70502  0.83239  1
 P  P2  1  0.00000  0.20502  0.16761  1
