CIF file written using JARVIS-Tools package.
data_GaSiNi6
_symmetry_space_group_name_H-M  'P4/mmm'
_cell_length_a       3.53622
_cell_length_b       3.53622
_cell_length_c       7.05884
_cell_angle_alpha    90
_cell_angle_beta     90
_cell_angle_gamma    90

_symmetry_Int_Tables_number  123
_chemical_formula_structural  GaSiNi6
_chemical_formula_sum  GaSiNi6
_cell_volume  88.2694653371396
_cell_formula_units_Z  1
loop_
  _symmetry_equiv_pos_site_id
 _symmetry_equiv_pos_as_xyz
 1  'x, y, z'
loop_
 _atom_site_type_symbol
 _atom_site_label
 _atom_site_symmetry_multiplicity
 _atom_site_fract_x
 _atom_site_fract_y
 _atom_site_fract_z
 _atom_site_fract_occupancy
 Ga  Ga1  1  0.00000  0.00000  0.00000  1
 Ni  Ni1  1  0.50000  0.50000  0.00000  1
 Ni  Ni2  1  0.50000  0.50000  0.50000  1
 Ni  Ni3  1  0.50000  0.00000  0.25815  1
 Ni  Ni4  1  0.50000  0.00000  0.74185  1
 Ni  Ni5  1  0.00000  0.50000  0.25815  1
 Ni  Ni6  1  0.00000  0.50000  0.74185  1
 Si  Si1  1  0.00000  0.00000  0.50000  1
