CIF file written using JARVIS-Tools package.
data_CrMoAs2
_symmetry_space_group_name_H-M  'Pmc2_1'
_cell_length_a       3.33817
_cell_length_b       5.90375
_cell_length_c       6.28468
_cell_angle_alpha    90
_cell_angle_beta     90
_cell_angle_gamma    90

_symmetry_Int_Tables_number  26
_chemical_formula_structural  CrMoAs2
_chemical_formula_sum  Cr2Mo2As4
_cell_volume  123.85662482804952
_cell_formula_units_Z  2
loop_
  _symmetry_equiv_pos_site_id
 _symmetry_equiv_pos_as_xyz
 1  'x, y, z'
loop_
 _atom_site_type_symbol
 _atom_site_label
 _atom_site_symmetry_multiplicity
 _atom_site_fract_x
 _atom_site_fract_y
 _atom_site_fract_z
 _atom_site_fract_occupancy
 As  As1  1  0.50000  0.30585  0.66456  1
 As  As2  1  0.50000  0.80585  0.33544  1
 As  As3  1  0.00000  0.69025  0.80623  1
 As  As4  1  0.00000  0.19025  0.19377  1
 Cr  Cr1  1  0.00000  0.51264  0.43303  1
 Cr  Cr2  1  0.00000  0.01264  0.56697  1
 Mo  Mo1  1  0.50000  0.49127  0.06340  1
 Mo  Mo2  1  0.50000  0.99127  0.93660  1
