CIF file written using JARVIS-Tools package.
data_Cu6PdN2
_symmetry_space_group_name_H-M  'P4/mmm'
_cell_length_a       3.84154
_cell_length_b       3.84154
_cell_length_c       7.74338
_cell_angle_alpha    90
_cell_angle_beta     90
_cell_angle_gamma    90

_symmetry_Int_Tables_number  123
_chemical_formula_structural  Cu6PdN2
_chemical_formula_sum  Cu6PdN2
_cell_volume  114.27259583228916
_cell_formula_units_Z  1
loop_
  _symmetry_equiv_pos_site_id
 _symmetry_equiv_pos_as_xyz
 1  'x, y, z'
loop_
 _atom_site_type_symbol
 _atom_site_label
 _atom_site_symmetry_multiplicity
 _atom_site_fract_x
 _atom_site_fract_y
 _atom_site_fract_z
 _atom_site_fract_occupancy
 Cu  Cu1  1  0.00000  0.50000  0.75117  1
 Cu  Cu2  1  0.00000  0.50000  0.24883  1
 Cu  Cu3  1  0.50000  0.00000  0.75117  1
 Cu  Cu4  1  0.50000  0.00000  0.24883  1
 Cu  Cu5  1  0.00000  0.00000  0.00000  1
 Cu  Cu6  1  0.00000  0.00000  0.50000  1
 N  N1  1  0.00000  0.00000  0.74332  1
 N  N2  1  0.00000  0.00000  0.25668  1
 Pd  Pd1  1  0.50000  0.50000  0.00000  1
