CIF file written using JARVIS-Tools package.
data_CdSn3
_symmetry_space_group_name_H-M  'P6_3/mmc'
_cell_length_a       6.6771
_cell_length_b       6.6771
_cell_length_c       5.61117
_cell_angle_alpha    90
_cell_angle_beta     90
_cell_angle_gamma    120

_symmetry_Int_Tables_number  194
_chemical_formula_structural  CdSn3
_chemical_formula_sum  Cd2Sn6
_cell_volume  216.6507620437062
_cell_formula_units_Z  2
loop_
  _symmetry_equiv_pos_site_id
 _symmetry_equiv_pos_as_xyz
 1  'x, y, z'
loop_
 _atom_site_type_symbol
 _atom_site_label
 _atom_site_symmetry_multiplicity
 _atom_site_fract_x
 _atom_site_fract_y
 _atom_site_fract_z
 _atom_site_fract_occupancy
 Cd  Cd1  1  0.33333  0.66667  0.75000  1
 Cd  Cd2  1  0.66667  0.33333  0.25000  1
 Sn  Sn1  1  0.16702  0.33404  0.25000  1
 Sn  Sn2  1  0.66596  0.83298  0.25000  1
 Sn  Sn3  1  0.16702  0.83298  0.25000  1
 Sn  Sn4  1  0.83298  0.66596  0.75000  1
 Sn  Sn5  1  0.33404  0.16702  0.75000  1
 Sn  Sn6  1  0.83298  0.16702  0.75000  1
