CIF file written using JARVIS-Tools package.
data_CeTh2O6
_symmetry_space_group_name_H-M  'P-3m1'
_cell_length_a       3.94071
_cell_length_b       3.94072
_cell_length_c       9.62654
_cell_angle_alpha    90
_cell_angle_beta     90
_cell_angle_gamma    120

_symmetry_Int_Tables_number  164
_chemical_formula_structural  CeTh2O6
_chemical_formula_sum  CeTh2O6
_cell_volume  129.46447445553923
_cell_formula_units_Z  1
loop_
  _symmetry_equiv_pos_site_id
 _symmetry_equiv_pos_as_xyz
 1  'x, y, z'
loop_
 _atom_site_type_symbol
 _atom_site_label
 _atom_site_symmetry_multiplicity
 _atom_site_fract_x
 _atom_site_fract_y
 _atom_site_fract_z
 _atom_site_fract_occupancy
 Ce  Ce1  1  0.00000  0.00000  0.00000  1
 O  O1  1  0.00000  0.00000  0.24523  1
 O  O2  1  0.33333  0.66667  0.92047  1
 O  O3  1  0.66667  0.33333  0.58464  1
 O  O4  1  0.66667  0.33333  0.07953  1
 O  O5  1  0.00000  0.00000  0.75477  1
 O  O6  1  0.33333  0.66667  0.41536  1
 Th  Th1  1  0.33333  0.66667  0.67000  1
 Th  Th2  1  0.66667  0.33333  0.33000  1
