CIF file written using JARVIS-Tools package.
data_CeZnCuP2
_symmetry_space_group_name_H-M  'P3m1'
_cell_length_a       4.02595
_cell_length_b       4.02596
_cell_length_c       6.69368
_cell_angle_alpha    90
_cell_angle_beta     90
_cell_angle_gamma    120

_symmetry_Int_Tables_number  156
_chemical_formula_structural  CeZnCuP2
_chemical_formula_sum  CeZnCuP2
_cell_volume  93.9577117768331
_cell_formula_units_Z  1
loop_
  _symmetry_equiv_pos_site_id
 _symmetry_equiv_pos_as_xyz
 1  'x, y, z'
loop_
 _atom_site_type_symbol
 _atom_site_label
 _atom_site_symmetry_multiplicity
 _atom_site_fract_x
 _atom_site_fract_y
 _atom_site_fract_z
 _atom_site_fract_occupancy
 Ce  Ce1  1  0.33333  0.66667  0.98846  1
 Cu  Cu1  1  0.66667  0.33333  0.64357  1
 P  P1  1  0.66667  0.33333  0.26049  1
 P  P2  1  0.00000  0.00000  0.73522  1
 Zn  Zn1  1  0.00000  0.00000  0.37226  1
