CIF file written using JARVIS-Tools package.
data_TbNd3
_symmetry_space_group_name_H-M  'P6_3/mmc'
_cell_length_a       7.30038
_cell_length_b       7.30038
_cell_length_c       5.86973
_cell_angle_alpha    90
_cell_angle_beta     90
_cell_angle_gamma    120

_symmetry_Int_Tables_number  194
_chemical_formula_structural  TbNd3
_chemical_formula_sum  Tb2Nd6
_cell_volume  270.91937479014865
_cell_formula_units_Z  2
loop_
  _symmetry_equiv_pos_site_id
 _symmetry_equiv_pos_as_xyz
 1  'x, y, z'
loop_
 _atom_site_type_symbol
 _atom_site_label
 _atom_site_symmetry_multiplicity
 _atom_site_fract_x
 _atom_site_fract_y
 _atom_site_fract_z
 _atom_site_fract_occupancy
 Nd  Nd1  1  0.16739  0.33479  0.25000  1
 Nd  Nd2  1  0.66521  0.83261  0.25000  1
 Nd  Nd3  1  0.16739  0.83261  0.25000  1
 Nd  Nd4  1  0.83261  0.66521  0.75000  1
 Nd  Nd5  1  0.33479  0.16739  0.75000  1
 Nd  Nd6  1  0.83261  0.16739  0.75000  1
 Tb  Tb1  1  0.33333  0.66667  0.75000  1
 Tb  Tb2  1  0.66667  0.33333  0.25000  1
