CIF file written using JARVIS-Tools package.
data_Cd2InAgS4
_symmetry_space_group_name_H-M  'Cm'
_cell_length_a       7.90434
_cell_length_b       7.90434
_cell_length_c       7.21906
_cell_angle_alpha    64.0868
_cell_angle_beta     64.0868
_cell_angle_gamma    30.4667

_symmetry_Int_Tables_number  8
_chemical_formula_structural  Cd2InAgS4
_chemical_formula_sum  Cd2InAgS4
_cell_volume  203.89104783827372
_cell_formula_units_Z  1
loop_
  _symmetry_equiv_pos_site_id
 _symmetry_equiv_pos_as_xyz
 1  'x, y, z'
loop_
 _atom_site_type_symbol
 _atom_site_label
 _atom_site_symmetry_multiplicity
 _atom_site_fract_x
 _atom_site_fract_y
 _atom_site_fract_z
 _atom_site_fract_occupancy
 Ag  Ag1  1  0.24689  0.24689  0.07278  1
 Cd  Cd1  1  0.49474  0.49474  0.17543  1
 Cd  Cd2  1  0.00441  0.00441  0.64831  1
 In  In1  1  0.75315  0.75315  0.59966  1
 S  S1  1  0.06110  0.06110  0.26327  1
 S  S2  1  0.56681  0.56681  0.77050  1
 S  S3  1  0.81788  0.81788  0.85515  1
 S  S4  1  0.30282  0.30282  0.36690  1
