CIF file written using JARVIS-Tools package.
data_CaMgP2Se6
_symmetry_space_group_name_H-M  'R3'
_cell_length_a       7.76998
_cell_length_b       7.76998
_cell_length_c       7.76997
_cell_angle_alpha    50.4272
_cell_angle_beta     50.4272
_cell_angle_gamma    50.4272

_symmetry_Int_Tables_number  146
_chemical_formula_structural  CaMgP2Se6
_chemical_formula_sum  CaMgP2Se6
_cell_volume  256.74524007730685
_cell_formula_units_Z  1
loop_
  _symmetry_equiv_pos_site_id
 _symmetry_equiv_pos_as_xyz
 1  'x, y, z'
loop_
 _atom_site_type_symbol
 _atom_site_label
 _atom_site_symmetry_multiplicity
 _atom_site_fract_x
 _atom_site_fract_y
 _atom_site_fract_z
 _atom_site_fract_occupancy
 Ca  Ca1  1  0.82893  0.82893  0.82893  1
 Mg  Mg1  1  0.17129  0.17129  0.17129  1
 P  P1  1  0.55520  0.55520  0.55520  1
 P  P2  1  0.44359  0.44359  0.44359  1
 Se  Se1  1  0.91662  0.27294  0.57378  1
 Se  Se2  1  0.57378  0.91662  0.27294  1
 Se  Se3  1  0.27294  0.57378  0.91662  1
 Se  Se4  1  0.11065  0.75480  0.37220  1
 Se  Se5  1  0.37220  0.11065  0.75480  1
 Se  Se6  1  0.75480  0.37220  0.11065  1
