CIF file written using JARVIS-Tools package.
data_BaCdSn
_symmetry_space_group_name_H-M  'C2/m'
_cell_length_a       6.61003
_cell_length_b       6.61003
_cell_length_c       8.46248
_cell_angle_alpha    50.3732
_cell_angle_beta     50.3732
_cell_angle_gamma    46.8871

_symmetry_Int_Tables_number  12
_chemical_formula_structural  BaCdSn
_chemical_formula_sum  Ba2Cd2Sn2
_cell_volume  194.03002988686285
_cell_formula_units_Z  2
loop_
  _symmetry_equiv_pos_site_id
 _symmetry_equiv_pos_as_xyz
 1  'x, y, z'
loop_
 _atom_site_type_symbol
 _atom_site_label
 _atom_site_symmetry_multiplicity
 _atom_site_fract_x
 _atom_site_fract_y
 _atom_site_fract_z
 _atom_site_fract_occupancy
 Ba  Ba1  1  0.54557  0.54557  0.70500  1
 Ba  Ba2  1  0.45443  0.45443  0.29500  1
 Cd  Cd1  1  0.15837  0.15837  0.27688  1
 Cd  Cd2  1  0.84163  0.84163  0.72312  1
 Sn  Sn1  1  0.83817  0.83817  0.10331  1
 Sn  Sn2  1  0.16183  0.16183  0.89669  1
