CIF file written using JARVIS-Tools package.
data_AlVCrC
_symmetry_space_group_name_H-M  'P-3m1'
_cell_length_a       2.88102
_cell_length_b       2.88102
_cell_length_c       12.8407
_cell_angle_alpha    90
_cell_angle_beta     90
_cell_angle_gamma    120

_symmetry_Int_Tables_number  164
_chemical_formula_structural  AlVCrC
_chemical_formula_sum  Al2V2Cr2C2
_cell_volume  92.30236087654984
_cell_formula_units_Z  2
loop_
  _symmetry_equiv_pos_site_id
 _symmetry_equiv_pos_as_xyz
 1  'x, y, z'
loop_
 _atom_site_type_symbol
 _atom_site_label
 _atom_site_symmetry_multiplicity
 _atom_site_fract_x
 _atom_site_fract_y
 _atom_site_fract_z
 _atom_site_fract_occupancy
 Al  Al1  1  0.33333  0.66667  0.74261  1
 Al  Al2  1  0.66667  0.33333  0.25739  1
 C  C1  1  0.00000  0.00000  0.50000  1
 C  C2  1  0.00000  0.00000  0.00000  1
 Cr  Cr1  1  0.33333  0.66667  0.41748  1
 Cr  Cr2  1  0.66667  0.33333  0.58252  1
 V  V1  1  0.66667  0.33333  0.91147  1
 V  V2  1  0.33333  0.66667  0.08853  1
