CIF file written using JARVIS-Tools package.
data_LaSiOs2C
_symmetry_space_group_name_H-M  'Cmcm'
_cell_length_a       5.96267
_cell_length_b       5.96267
_cell_length_c       7.23167
_cell_angle_alpha    90
_cell_angle_beta     90
_cell_angle_gamma    140.348

_symmetry_Int_Tables_number  63
_chemical_formula_structural  LaSiOs2C
_chemical_formula_sum  La2Si2Os4C2
_cell_volume  164.06958625778034
_cell_formula_units_Z  2
loop_
  _symmetry_equiv_pos_site_id
 _symmetry_equiv_pos_as_xyz
 1  'x, y, z'
loop_
 _atom_site_type_symbol
 _atom_site_label
 _atom_site_symmetry_multiplicity
 _atom_site_fract_x
 _atom_site_fract_y
 _atom_site_fract_z
 _atom_site_fract_occupancy
 C  C1  1  0.00000  0.00000  0.00000  1
 C  C2  1  0.00000  0.00000  0.50000  1
 La  La1  1  0.55049  0.44951  0.25000  1
 La  La2  1  0.44951  0.55049  0.75000  1
 Os  Os1  1  0.83411  0.16589  0.05919  1
 Os  Os2  1  0.16589  0.83411  0.94081  1
 Os  Os3  1  0.16589  0.83411  0.55919  1
 Os  Os4  1  0.83411  0.16589  0.44081  1
 Si  Si1  1  0.27102  0.72898  0.25000  1
 Si  Si2  1  0.72898  0.27102  0.75000  1
