CIF file written using JARVIS-Tools package.
data_TmSiOs2C
_symmetry_space_group_name_H-M  'Cmcm'
_cell_length_a       5.92306
_cell_length_b       5.92307
_cell_length_c       7.09694
_cell_angle_alpha    90
_cell_angle_beta     90
_cell_angle_gamma    142.363

_symmetry_Int_Tables_number  63
_chemical_formula_structural  TmSiOs2C
_chemical_formula_sum  Tm2Si2Os4C2
_cell_volume  152.04131526336582
_cell_formula_units_Z  2
loop_
  _symmetry_equiv_pos_site_id
 _symmetry_equiv_pos_as_xyz
 1  'x, y, z'
loop_
 _atom_site_type_symbol
 _atom_site_label
 _atom_site_symmetry_multiplicity
 _atom_site_fract_x
 _atom_site_fract_y
 _atom_site_fract_z
 _atom_site_fract_occupancy
 C  C1  1  0.00000  0.00000  0.00000  1
 C  C2  1  0.00000  0.00000  0.50000  1
 Os  Os1  1  0.83581  0.16419  0.05629  1
 Os  Os2  1  0.16419  0.83581  0.94371  1
 Os  Os3  1  0.16419  0.83581  0.55629  1
 Os  Os4  1  0.83581  0.16419  0.44371  1
 Si  Si1  1  0.26851  0.73149  0.25000  1
 Si  Si2  1  0.73149  0.26851  0.75000  1
 Tm  Tm1  1  0.54670  0.45330  0.25000  1
 Tm  Tm2  1  0.45330  0.54670  0.75000  1
