CIF file written using JARVIS-Tools package.
data_MnCrN2
_symmetry_space_group_name_H-M  'R3m'
_cell_length_a       2.74249
_cell_length_b       5.2904
_cell_length_c       15.1436
_cell_angle_alpha    17.415
_cell_angle_beta     89.9996
_cell_angle_gamma    74.9774

_symmetry_Int_Tables_number  160
_chemical_formula_structural  MnCrN2
_chemical_formula_sum  MnCrN2
_cell_volume  32.87963228368868
_cell_formula_units_Z  1
loop_
  _symmetry_equiv_pos_site_id
 _symmetry_equiv_pos_as_xyz
 1  'x, y, z'
loop_
 _atom_site_type_symbol
 _atom_site_label
 _atom_site_symmetry_multiplicity
 _atom_site_fract_x
 _atom_site_fract_y
 _atom_site_fract_z
 _atom_site_fract_occupancy
 Cr  Cr1  1  0.00000  0.74995  0.25024  1
 Mn  Mn1  1  -0.00001  0.75001  0.08404  1
 N  N1  1  -0.00000  0.74998  0.50007  1
 N  N2  1  0.00001  0.74996  0.66565  1
