CIF file written using JARVIS-Tools package.
data_Zr6CoSn2
_symmetry_space_group_name_H-M  'P-62m'
_cell_length_a       7.94939
_cell_length_b       7.94938
_cell_length_c       3.51177
_cell_angle_alpha    90
_cell_angle_beta     90
_cell_angle_gamma    120

_symmetry_Int_Tables_number  189
_chemical_formula_structural  Zr6CoSn2
_chemical_formula_sum  Zr6CoSn2
_cell_volume  192.18718865615853
_cell_formula_units_Z  1
loop_
  _symmetry_equiv_pos_site_id
 _symmetry_equiv_pos_as_xyz
 1  'x, y, z'
loop_
 _atom_site_type_symbol
 _atom_site_label
 _atom_site_symmetry_multiplicity
 _atom_site_fract_x
 _atom_site_fract_y
 _atom_site_fract_z
 _atom_site_fract_occupancy
 Co  Co1  1  0.00000  0.00000  0.00000  1
 Sn  Sn1  1  0.33333  0.66667  0.50000  1
 Sn  Sn2  1  0.66667  0.33333  0.50000  1
 Zr  Zr1  1  0.24092  0.00000  0.50000  1
 Zr  Zr2  1  0.00000  0.24092  0.50000  1
 Zr  Zr3  1  0.75908  0.75908  0.50000  1
 Zr  Zr4  1  0.60389  -0.00000  0.00000  1
 Zr  Zr5  1  -0.00000  0.60389  0.00000  1
 Zr  Zr6  1  0.39611  0.39611  0.00000  1
