CIF file written using JARVIS-Tools package.
data_Er2Al4NiGe2
_symmetry_space_group_name_H-M  'I4/mmm'
_cell_length_a       10.0605
_cell_length_b       10.0605
_cell_length_c       10.0605
_cell_angle_alpha    156.36
_cell_angle_beta     156.36
_cell_angle_gamma    33.6786

_symmetry_Int_Tables_number  139
_chemical_formula_structural  Er2Al4NiGe2
_chemical_formula_sum  Er2Al4NiGe2
_cell_volume  163.57516421229556
_cell_formula_units_Z  1
loop_
  _symmetry_equiv_pos_site_id
 _symmetry_equiv_pos_as_xyz
 1  'x, y, z'
loop_
 _atom_site_type_symbol
 _atom_site_label
 _atom_site_symmetry_multiplicity
 _atom_site_fract_x
 _atom_site_fract_y
 _atom_site_fract_z
 _atom_site_fract_occupancy
 Al  Al1  1  0.56783  0.06783  0.50000  1
 Al  Al2  1  0.43217  0.93217  0.50000  1
 Al  Al3  1  0.06783  0.56783  0.50000  1
 Al  Al4  1  0.93217  0.43217  0.50000  1
 Er  Er1  1  0.18659  0.18659  -0.00000  1
 Er  Er2  1  0.81341  0.81341  0.00000  1
 Ge  Ge1  1  0.33585  0.33585  0.00000  1
 Ge  Ge2  1  0.66415  0.66415  -0.00000  1
 Ni  Ni1  1  0.00000  0.00000  0.00000  1
