CIF file written using JARVIS-Tools package.
data_CoNiO3
_symmetry_space_group_name_H-M  'R-3'
_cell_length_a       4.83846
_cell_length_b       4.83802
_cell_length_c       5.18972
_cell_angle_alpha    62.2182
_cell_angle_beta     117.784
_cell_angle_gamma    120.001

_symmetry_Int_Tables_number  148
_chemical_formula_structural  CoNiO3
_chemical_formula_sum  Co2Ni2O6
_cell_volume  88.66881268654366
_cell_formula_units_Z  2
loop_
  _symmetry_equiv_pos_site_id
 _symmetry_equiv_pos_as_xyz
 1  'x, y, z'
loop_
 _atom_site_type_symbol
 _atom_site_label
 _atom_site_symmetry_multiplicity
 _atom_site_fract_x
 _atom_site_fract_y
 _atom_site_fract_z
 _atom_site_fract_occupancy
 Co  Co1  1  0.84680  0.15318  0.54043  1
 Co  Co2  1  0.15320  0.84682  0.45957  1
 Ni  Ni1  1  0.35217  0.64781  0.05656  1
 Ni  Ni2  1  0.64783  0.35219  0.94344  1
 O  O1  1  0.75987  0.94767  0.25654  1
 O  O2  1  0.94767  0.44437  0.74345  1
 O  O3  1  0.55565  0.75987  0.74346  1
 O  O4  1  0.44434  0.24013  0.25654  1
 O  O5  1  0.05233  0.55564  0.25655  1
 O  O6  1  0.24013  0.05233  0.74346  1
