CIF file written using JARVIS-Tools package.
data_Sm2CdRh2
_symmetry_space_group_name_H-M  'P4/mbm'
_cell_length_a       7.5929
_cell_length_b       7.5929
_cell_length_c       3.81902
_cell_angle_alpha    90
_cell_angle_beta     90
_cell_angle_gamma    90

_symmetry_Int_Tables_number  127
_chemical_formula_structural  Sm2CdRh2
_chemical_formula_sum  Sm4Cd2Rh4
_cell_volume  220.17422441989333
_cell_formula_units_Z  2
loop_
  _symmetry_equiv_pos_site_id
 _symmetry_equiv_pos_as_xyz
 1  'x, y, z'
loop_
 _atom_site_type_symbol
 _atom_site_label
 _atom_site_symmetry_multiplicity
 _atom_site_fract_x
 _atom_site_fract_y
 _atom_site_fract_z
 _atom_site_fract_occupancy
 Cd  Cd1  1  0.00000  0.00000  0.00000  1
 Cd  Cd2  1  0.50000  0.50000  0.00000  1
 Rh  Rh1  1  0.13522  0.63522  0.00000  1
 Rh  Rh2  1  0.86478  0.36478  0.00000  1
 Rh  Rh3  1  0.63522  0.86478  0.00000  1
 Rh  Rh4  1  0.36478  0.13522  0.00000  1
 Sm  Sm1  1  0.66623  0.16623  0.50000  1
 Sm  Sm2  1  0.33377  0.83377  0.50000  1
 Sm  Sm3  1  0.16623  0.33377  0.50000  1
 Sm  Sm4  1  0.83377  0.66623  0.50000  1
