CIF file written using JARVIS-Tools package.
data_Te9Mo8S7
_symmetry_space_group_name_H-M  'Cm'
_cell_length_a       3.40107
_cell_length_b       12.0953
_cell_length_c       14.8052
_cell_angle_alpha    76.8631
_cell_angle_beta     83.4035
_cell_angle_gamma    73.6685

_symmetry_Int_Tables_number  8
_chemical_formula_structural  Te9Mo8S7
_chemical_formula_sum  Te9Mo8S7
_cell_volume  568.3243414263499
_cell_formula_units_Z  1
loop_
  _symmetry_equiv_pos_site_id
 _symmetry_equiv_pos_as_xyz
 1  'x, y, z'
loop_
 _atom_site_type_symbol
 _atom_site_label
 _atom_site_symmetry_multiplicity
 _atom_site_fract_x
 _atom_site_fract_y
 _atom_site_fract_z
 _atom_site_fract_occupancy
 Mo  Mo1  1  0.08591  0.78726  0.25351  1
 Mo  Mo2  1  0.41974  0.71069  0.73927  1
 Mo  Mo3  1  0.57668  0.30080  0.24492  1
 Mo  Mo4  1  0.66595  0.95770  0.75285  1
 Mo  Mo5  1  0.33589  0.03322  0.26164  1
 Mo  Mo6  1  0.16678  0.45691  0.75276  1
 Mo  Mo7  1  0.83293  0.54731  0.23938  1
 Mo  Mo8  1  0.91368  0.20343  0.76592  1
 S  S1  1  0.96971  0.60833  0.84404  1
 S  S2  1  0.23624  0.59088  0.34560  1
 S  S3  1  0.96813  0.35938  0.34483  1
 S  S4  1  0.52232  0.89932  0.15657  1
 S  S5  1  0.51363  0.15582  0.66127  1
 S  S6  1  0.78214  0.38980  0.65628  1
 S  S7  1  0.23525  0.84053  0.84856  1
 Te  Te1  1  0.04668  0.64865  0.60947  1
 Te  Te2  1  0.26966  0.92282  0.61521  1
 Te  Te3  1  0.47892  0.82585  0.39031  1
 Te  Te4  1  0.79062  0.14496  0.12872  1
 Te  Te5  1  0.70290  0.10427  0.38549  1
 Te  Te6  1  0.47677  0.07501  0.89657  1
 Te  Te7  1  0.03332  0.41225  0.10877  1
 Te  Te8  1  0.70489  0.35018  0.88998  1
 Te  Te9  1  0.27128  0.67462  0.10807  1
