CIF file written using JARVIS-Tools package.
data_ScCuGe
_symmetry_space_group_name_H-M  'P-62m'
_cell_length_a       6.71863
_cell_length_b       6.71864
_cell_length_c       3.79021
_cell_angle_alpha    90
_cell_angle_beta     90
_cell_angle_gamma    120

_symmetry_Int_Tables_number  189
_chemical_formula_structural  ScCuGe
_chemical_formula_sum  Sc3Cu3Ge3
_cell_volume  148.16839102560613
_cell_formula_units_Z  3
loop_
  _symmetry_equiv_pos_site_id
 _symmetry_equiv_pos_as_xyz
 1  'x, y, z'
loop_
 _atom_site_type_symbol
 _atom_site_label
 _atom_site_symmetry_multiplicity
 _atom_site_fract_x
 _atom_site_fract_y
 _atom_site_fract_z
 _atom_site_fract_occupancy
 Cu  Cu1  1  0.33333  0.66667  0.50000  1
 Cu  Cu2  1  0.66667  0.33333  0.50000  1
 Cu  Cu3  1  0.00000  0.00000  0.00000  1
 Ge  Ge1  1  0.27068  -0.00000  0.50000  1
 Ge  Ge2  1  -0.00000  0.27068  0.50000  1
 Ge  Ge3  1  0.72932  0.72932  0.50000  1
 Sc  Sc1  1  0.60501  -0.00000  0.00000  1
 Sc  Sc2  1  -0.00000  0.60501  0.00000  1
 Sc  Sc3  1  0.39499  0.39499  0.00000  1
