CIF file written using JARVIS-Tools package.
data_Rb2LiRuCl6
_symmetry_space_group_name_H-M  'P-3m1'
_cell_length_a       6.92245
_cell_length_b       6.92246
_cell_length_c       5.91336
_cell_angle_alpha    90
_cell_angle_beta     90
_cell_angle_gamma    120

_symmetry_Int_Tables_number  164
_chemical_formula_structural  Rb2LiRuCl6
_chemical_formula_sum  Rb2LiRuCl6
_cell_volume  245.40590426457507
_cell_formula_units_Z  1
loop_
  _symmetry_equiv_pos_site_id
 _symmetry_equiv_pos_as_xyz
 1  'x, y, z'
loop_
 _atom_site_type_symbol
 _atom_site_label
 _atom_site_symmetry_multiplicity
 _atom_site_fract_x
 _atom_site_fract_y
 _atom_site_fract_z
 _atom_site_fract_occupancy
 Cl  Cl1  1  0.83770  0.16230  0.26569  1
 Cl  Cl2  1  0.16230  0.83770  0.73431  1
 Cl  Cl3  1  0.83770  0.67541  0.26569  1
 Cl  Cl4  1  0.16230  0.32459  0.73431  1
 Cl  Cl5  1  0.32459  0.16230  0.26569  1
 Cl  Cl6  1  0.67541  0.83770  0.73431  1
 Li  Li1  1  0.00000  0.00000  0.00000  1
 Rb  Rb1  1  0.33333  0.66667  0.25844  1
 Rb  Rb2  1  0.66667  0.33333  0.74156  1
 Ru  Ru1  1  0.00000  0.00000  0.50000  1
