CIF file written using JARVIS-Tools package.
data_PrIn2Rh
_symmetry_space_group_name_H-M  'Cmcm'
_cell_length_a       5.65528
_cell_length_b       5.65528
_cell_length_c       8.00995
_cell_angle_alpha    90
_cell_angle_beta     90
_cell_angle_gamma    133.844

_symmetry_Int_Tables_number  63
_chemical_formula_structural  PrIn2Rh
_chemical_formula_sum  Pr2In4Rh2
_cell_volume  184.76152517775213
_cell_formula_units_Z  2
loop_
  _symmetry_equiv_pos_site_id
 _symmetry_equiv_pos_as_xyz
 1  'x, y, z'
loop_
 _atom_site_type_symbol
 _atom_site_label
 _atom_site_symmetry_multiplicity
 _atom_site_fract_x
 _atom_site_fract_y
 _atom_site_fract_z
 _atom_site_fract_occupancy
 In  In1  1  0.85478  0.14522  0.05027  1
 In  In2  1  0.14522  0.85478  0.94973  1
 In  In3  1  0.14522  0.85478  0.55027  1
 In  In4  1  0.85478  0.14522  0.44973  1
 Pr  Pr1  1  0.56765  0.43235  0.25000  1
 Pr  Pr2  1  0.43235  0.56765  0.75000  1
 Rh  Rh1  1  0.28472  0.71528  0.25000  1
 Rh  Rh2  1  0.71528  0.28472  0.75000  1
