CIF file written using JARVIS-Tools package.
data_BaBiBrO2
_symmetry_space_group_name_H-M  'Cmcm'
_cell_length_a       7.3369
_cell_length_b       7.3369
_cell_length_c       5.8349
_cell_angle_alpha    90
_cell_angle_beta     90
_cell_angle_gamma    131.487

_symmetry_Int_Tables_number  63
_chemical_formula_structural  BaBiBrO2
_chemical_formula_sum  Ba2Bi2Br2O4
_cell_volume  235.28872495968008
_cell_formula_units_Z  2
loop_
  _symmetry_equiv_pos_site_id
 _symmetry_equiv_pos_as_xyz
 1  'x, y, z'
loop_
 _atom_site_type_symbol
 _atom_site_label
 _atom_site_symmetry_multiplicity
 _atom_site_fract_x
 _atom_site_fract_y
 _atom_site_fract_z
 _atom_site_fract_occupancy
 Ba  Ba1  1  0.61313  0.38687  0.25000  1
 Ba  Ba2  1  0.38687  0.61313  0.75000  1
 Bi  Bi1  1  0.92550  0.07450  0.25000  1
 Bi  Bi2  1  0.07450  0.92550  0.75000  1
 Br  Br1  1  0.25328  0.74672  0.25000  1
 Br  Br2  1  0.74672  0.25328  0.75000  1
 O  O1  1  0.22653  0.22653  0.00000  1
 O  O2  1  0.77347  0.77347  0.00000  1
 O  O3  1  0.77347  0.77347  0.50000  1
 O  O4  1  0.22653  0.22653  0.50000  1
