CIF file written using JARVIS-Tools package.
data_CoH4Br2O2
_symmetry_space_group_name_H-M  'C2/m'
_cell_length_a       3.75259
_cell_length_b       5.71676
_cell_length_c       5.71676
_cell_angle_alpha    97.6632
_cell_angle_beta     94.9938
_cell_angle_gamma    94.9939

_symmetry_Int_Tables_number  12
_chemical_formula_structural  CoH4Br2O2
_chemical_formula_sum  CoH4Br2O2
_cell_volume  120.47710189489266
_cell_formula_units_Z  1
loop_
  _symmetry_equiv_pos_site_id
 _symmetry_equiv_pos_as_xyz
 1  'x, y, z'
loop_
 _atom_site_type_symbol
 _atom_site_label
 _atom_site_symmetry_multiplicity
 _atom_site_fract_x
 _atom_site_fract_y
 _atom_site_fract_z
 _atom_site_fract_occupancy
 Br  Br1  1  0.43896  0.75528  0.75528  1
 Br  Br2  1  0.56104  0.24472  0.24472  1
 Co  Co1  1  0.00000  0.00000  0.00000  1
 H  H1  1  0.84628  0.21460  0.61569  1
 H  H2  1  0.15372  0.38431  0.78540  1
 H  H3  1  0.84628  0.61569  0.21460  1
 H  H4  1  0.15372  0.78540  0.38431  1
 O  O1  1  1.00000  0.76768  0.23232  1
 O  O2  1  1.00000  0.23232  0.76768  1
