CIF file written using JARVIS-Tools package.
data_Ti2Sb
_symmetry_space_group_name_H-M  'I4/mmm'
_cell_length_a       7.8824
_cell_length_b       7.88241
_cell_length_c       7.88241
_cell_angle_alpha    151.143
_cell_angle_beta     151.143
_cell_angle_gamma    41.2654

_symmetry_Int_Tables_number  139
_chemical_formula_structural  Ti2Sb
_chemical_formula_sum  Ti4Sb2
_cell_volume  113.82240567129472
_cell_formula_units_Z  2
loop_
  _symmetry_equiv_pos_site_id
 _symmetry_equiv_pos_as_xyz
 1  'x, y, z'
loop_
 _atom_site_type_symbol
 _atom_site_label
 _atom_site_symmetry_multiplicity
 _atom_site_fract_x
 _atom_site_fract_y
 _atom_site_fract_z
 _atom_site_fract_occupancy
 Sb  Sb1  1  0.35922  0.35922  -0.00000  1
 Sb  Sb2  1  0.64078  0.64078  0.00000  1
 Ti  Ti1  1  0.17028  0.17028  0.00000  1
 Ti  Ti2  1  0.82972  0.82972  -0.00000  1
 Ti  Ti3  1  0.50000  0.00000  0.50000  1
 Ti  Ti4  1  0.00000  0.50000  0.50000  1
