CIF file written using JARVIS-Tools package.
data_MnCoO4
_symmetry_space_group_name_H-M  'P2/m'
_cell_length_a       2.84571
_cell_length_b       4.91971
_cell_length_c       4.68856
_cell_angle_alpha    69.2266
_cell_angle_beta     90
_cell_angle_gamma    90

_symmetry_Int_Tables_number  10
_chemical_formula_structural  MnCoO4
_chemical_formula_sum  MnCoO4
_cell_volume  61.372960747660265
_cell_formula_units_Z  1
loop_
  _symmetry_equiv_pos_site_id
 _symmetry_equiv_pos_as_xyz
 1  'x, y, z'
loop_
 _atom_site_type_symbol
 _atom_site_label
 _atom_site_symmetry_multiplicity
 _atom_site_fract_x
 _atom_site_fract_y
 _atom_site_fract_z
 _atom_site_fract_occupancy
 Co  Co1  1  0.00000  0.50000  0.50000  1
 Mn  Mn1  1  0.50000  0.00000  0.50000  1
 O  O1  1  0.00000  0.24183  0.28260  1
 O  O2  1  0.50000  0.73596  0.28638  1
 O  O3  1  0.50000  0.26404  0.71362  1
 O  O4  1  0.00000  0.75817  0.71740  1
