CIF file written using JARVIS-Tools package.
data_USn2
_symmetry_space_group_name_H-M  'Cmmm'
_cell_length_a       7.77084
_cell_length_b       7.77084
_cell_length_c       4.63637
_cell_angle_alpha    90
_cell_angle_beta     90
_cell_angle_gamma    146.774

_symmetry_Int_Tables_number  65
_chemical_formula_structural  USn2
_chemical_formula_sum  U2Sn4
_cell_volume  153.40980187493957
_cell_formula_units_Z  2
loop_
  _symmetry_equiv_pos_site_id
 _symmetry_equiv_pos_as_xyz
 1  'x, y, z'
loop_
 _atom_site_type_symbol
 _atom_site_label
 _atom_site_symmetry_multiplicity
 _atom_site_fract_x
 _atom_site_fract_y
 _atom_site_fract_z
 _atom_site_fract_occupancy
 Sn  Sn1  1  0.67719  0.32281  0.00000  1
 Sn  Sn2  1  0.32281  0.67719  0.00000  1
 Sn  Sn3  1  0.50000  0.50000  0.50000  1
 Sn  Sn4  1  0.00000  0.00000  0.00000  1
 U  U1  1  0.84713  0.15287  0.50000  1
 U  U2  1  0.15287  0.84713  0.50000  1
