CIF file written using JARVIS-Tools package.
data_Zr3NbC4
_symmetry_space_group_name_H-M  'R-3m'
_cell_length_a       10.9313
_cell_length_b       10.9313
_cell_length_c       10.9313
_cell_angle_alpha    17.3285
_cell_angle_beta     17.3285
_cell_angle_gamma    17.3285

_symmetry_Int_Tables_number  166
_chemical_formula_structural  Zr3NbC4
_chemical_formula_sum  Zr3NbC4
_cell_volume  101.12111121928248
_cell_formula_units_Z  1
loop_
  _symmetry_equiv_pos_site_id
 _symmetry_equiv_pos_as_xyz
 1  'x, y, z'
loop_
 _atom_site_type_symbol
 _atom_site_label
 _atom_site_symmetry_multiplicity
 _atom_site_fract_x
 _atom_site_fract_y
 _atom_site_fract_z
 _atom_site_fract_occupancy
 C  C1  1  0.37268  0.37268  0.37268  1
 C  C2  1  0.12420  0.12420  0.12420  1
 C  C3  1  0.62732  0.62732  0.62732  1
 C  C4  1  0.87580  0.87580  0.87580  1
 Nb  Nb1  1  0.00000  0.00000  0.00000  1
 Zr  Zr1  1  0.25126  0.25126  0.25126  1
 Zr  Zr2  1  0.50000  0.50000  0.50000  1
 Zr  Zr3  1  0.74874  0.74874  0.74874  1
