CIF file written using JARVIS-Tools package.
data_ZnIn3AsSe4
_symmetry_space_group_name_H-M  'P1'
_cell_length_a       5.86671
_cell_length_b       7.18043
_cell_length_c       7.21874
_cell_angle_alpha    80.2507
_cell_angle_beta     66.0026
_cell_angle_gamma    66.1292

_symmetry_Int_Tables_number  1
_chemical_formula_structural  ZnIn3AsSe4
_chemical_formula_sum  ZnIn3AsSe4
_cell_volume  254.04076749932793
_cell_formula_units_Z  1
loop_
  _symmetry_equiv_pos_site_id
 _symmetry_equiv_pos_as_xyz
 1  'x, y, z'
loop_
 _atom_site_type_symbol
 _atom_site_label
 _atom_site_symmetry_multiplicity
 _atom_site_fract_x
 _atom_site_fract_y
 _atom_site_fract_z
 _atom_site_fract_occupancy
 As  As1  1  0.42108  0.71961  0.90475  1
 In  In1  1  0.40114  0.39202  0.80496  1
 In  In2  1  0.61381  0.59880  0.19492  1
 In  In3  1  0.80731  0.80215  0.59788  1
 Se  Se1  1  0.62231  0.93084  0.30070  1
 Se  Se2  1  0.89192  0.10849  0.68097  1
 Se  Se3  1  0.06213  0.27318  0.12652  1
 Se  Se4  1  0.25146  0.46523  0.48728  1
 Zn  Zn1  1  0.97884  0.00968  0.00203  1
