CIF file written using JARVIS-Tools package.
data_YbGaCu4
_symmetry_space_group_name_H-M  'P-6m2'
_cell_length_a       5.08015
_cell_length_b       5.08015
_cell_length_c       4.05427
_cell_angle_alpha    90
_cell_angle_beta     90
_cell_angle_gamma    120

_symmetry_Int_Tables_number  187
_chemical_formula_structural  YbGaCu4
_chemical_formula_sum  YbGaCu4
_cell_volume  90.61424493953145
_cell_formula_units_Z  1
loop_
  _symmetry_equiv_pos_site_id
 _symmetry_equiv_pos_as_xyz
 1  'x, y, z'
loop_
 _atom_site_type_symbol
 _atom_site_label
 _atom_site_symmetry_multiplicity
 _atom_site_fract_x
 _atom_site_fract_y
 _atom_site_fract_z
 _atom_site_fract_occupancy
 Cu  Cu1  1  0.00000  0.00000  0.00000  1
 Cu  Cu2  1  0.33001  0.16500  0.50000  1
 Cu  Cu3  1  0.83500  0.16500  0.50000  1
 Cu  Cu4  1  0.83500  0.66999  0.50000  1
 Ga  Ga1  1  0.66667  0.33333  0.00000  1
 Yb  Yb1  1  0.33333  0.66667  0.00000  1
