CIF file written using JARVIS-Tools package.
data_Ti4In2CoNi
_symmetry_space_group_name_H-M  'R-3m'
_cell_length_a       7.82674
_cell_length_b       7.82674
_cell_length_c       7.82673
_cell_angle_alpha    33.585
_cell_angle_beta     33.585
_cell_angle_gamma    33.585

_symmetry_Int_Tables_number  166
_chemical_formula_structural  Ti4In2CoNi
_chemical_formula_sum  Ti4In2CoNi
_cell_volume  130.68583647507236
_cell_formula_units_Z  1
loop_
  _symmetry_equiv_pos_site_id
 _symmetry_equiv_pos_as_xyz
 1  'x, y, z'
loop_
 _atom_site_type_symbol
 _atom_site_label
 _atom_site_symmetry_multiplicity
 _atom_site_fract_x
 _atom_site_fract_y
 _atom_site_fract_z
 _atom_site_fract_occupancy
 Co  Co1  1  0.00000  0.00000  0.00000  1
 In  In1  1  0.75012  0.75012  0.75012  1
 In  In2  1  0.24988  0.24988  0.24988  1
 Ni  Ni1  1  0.50000  0.50000  0.50000  1
 Ti  Ti1  1  0.12448  0.12448  0.12448  1
 Ti  Ti2  1  0.62537  0.62537  0.62537  1
 Ti  Ti3  1  0.37463  0.37463  0.37463  1
 Ti  Ti4  1  0.87552  0.87552  0.87552  1
