CIF file written using JARVIS-Tools package.
data_Ti2ReOs
_symmetry_space_group_name_H-M  'P4/mmm'
_cell_length_a       3.10151
_cell_length_b       3.10151
_cell_length_c       6.22626
_cell_angle_alpha    90
_cell_angle_beta     90
_cell_angle_gamma    90

_symmetry_Int_Tables_number  123
_chemical_formula_structural  Ti2ReOs
_chemical_formula_sum  Ti2ReOs
_cell_volume  59.89282087659972
_cell_formula_units_Z  1
loop_
  _symmetry_equiv_pos_site_id
 _symmetry_equiv_pos_as_xyz
 1  'x, y, z'
loop_
 _atom_site_type_symbol
 _atom_site_label
 _atom_site_symmetry_multiplicity
 _atom_site_fract_x
 _atom_site_fract_y
 _atom_site_fract_z
 _atom_site_fract_occupancy
 Os  Os1  1  0.00000  0.00000  0.00000  1
 Re  Re1  1  0.00000  0.00000  0.50000  1
 Ti  Ti1  1  0.50000  0.50000  0.24981  1
 Ti  Ti2  1  0.50000  0.50000  0.75019  1
