CIF file written using JARVIS-Tools package.
data_V4Ru
_symmetry_space_group_name_H-M  'Fmmm'
_cell_length_a       10.4421
_cell_length_b       10.3173
_cell_length_c       2.65777
_cell_angle_alpha    85.3224
_cell_angle_beta     79.9825
_cell_angle_gamma    14.6952

_symmetry_Int_Tables_number  69
_chemical_formula_structural  V4Ru
_chemical_formula_sum  V4Ru
_cell_volume  67.08168884070372
_cell_formula_units_Z  1
loop_
  _symmetry_equiv_pos_site_id
 _symmetry_equiv_pos_as_xyz
 1  'x, y, z'
loop_
 _atom_site_type_symbol
 _atom_site_label
 _atom_site_symmetry_multiplicity
 _atom_site_fract_x
 _atom_site_fract_y
 _atom_site_fract_z
 _atom_site_fract_occupancy
 Ru  Ru1  1  0.00000  0.00000  0.00000  1
 V  V1  1  0.39888  0.39888  0.60112  1
 V  V2  1  0.79990  0.79990  0.20010  1
 V  V3  1  0.20010  0.20010  0.79990  1
 V  V4  1  0.60112  0.60112  0.39888  1
