CIF file written using JARVIS-Tools package.
data_TiVC2
_symmetry_space_group_name_H-M  'R-3m'
_cell_length_a       5.20922
_cell_length_b       5.20923
_cell_length_c       5.20923
_cell_angle_alpha    33.454
_cell_angle_beta     33.454
_cell_angle_gamma    33.4539

_symmetry_Int_Tables_number  166
_chemical_formula_structural  TiVC2
_chemical_formula_sum  TiVC2
_cell_volume  38.25717933430428
_cell_formula_units_Z  1
loop_
  _symmetry_equiv_pos_site_id
 _symmetry_equiv_pos_as_xyz
 1  'x, y, z'
loop_
 _atom_site_type_symbol
 _atom_site_label
 _atom_site_symmetry_multiplicity
 _atom_site_fract_x
 _atom_site_fract_y
 _atom_site_fract_z
 _atom_site_fract_occupancy
 C  C1  1  0.25292  0.25292  0.25292  1
 C  C2  1  0.74708  0.74708  0.74708  1
 Ti  Ti1  1  0.50000  0.50000  0.50000  1
 V  V1  1  0.00000  0.00000  0.00000  1
