CIF file written using JARVIS-Tools package.
data_Cu3SbSe3
_symmetry_space_group_name_H-M  'Pnma'
_cell_length_a       7.06515
_cell_length_b       7.98166
_cell_length_c       10.536
_cell_angle_alpha    90
_cell_angle_beta     90
_cell_angle_gamma    90

_symmetry_Int_Tables_number  62
_chemical_formula_structural  Cu3SbSe3
_chemical_formula_sum  Cu2Sb4Se2
_cell_volume  594.1401905244732
_cell_formula_units_Z  4
loop_
  _symmetry_equiv_pos_site_id
 _symmetry_equiv_pos_as_xyz
 1  'x, y, z'
loop_
 _atom_site_type_symbol
 _atom_site_label
 _atom_site_symmetry_multiplicity
 _atom_site_fract_x
 _atom_site_fract_y
 _atom_site_fract_z
 _atom_site_fract_occupancy
 Cu  Cu1  1  0.07201  0.66726  0.25000  1
 Cu  Cu2  1  0.57201  0.83274  0.75000  1
 Cu  Cu3  1  0.92799  0.33274  0.75000  1
 Cu  Cu4  1  0.42799  0.16726  0.25000  1
 Cu  Cu5  1  0.22761  0.09636  0.04427  1
 Cu  Cu6  1  0.72761  0.40364  0.95573  1
 Cu  Cu7  1  0.27239  0.59636  0.45573  1
 Cu  Cu8  1  0.77239  0.90364  0.54427  1
 Cu  Cu9  1  0.77239  0.90364  0.95573  1
 Cu  Cu10  1  0.27239  0.59636  0.04427  1
 Cu  Cu11  1  0.72761  0.40364  0.54427  1
 Cu  Cu12  1  0.22761  0.09636  0.45573  1
 Sb  Sb1  1  0.09421  0.75788  0.75000  1
 Sb  Sb2  1  0.59421  0.74212  0.25000  1
 Sb  Sb3  1  0.40579  0.25788  0.75000  1
 Sb  Sb4  1  0.90579  0.24212  0.25000  1
 Se  Se1  1  0.34185  0.84660  0.93167  1
 Se  Se2  1  0.84185  0.65340  0.06833  1
 Se  Se3  1  0.65815  0.15340  0.43167  1
 Se  Se4  1  0.15815  0.34660  0.56833  1
 Se  Se5  1  0.13881  0.98467  0.25000  1
 Se  Se6  1  0.63881  0.51533  0.75000  1
 Se  Se7  1  0.36119  0.48467  0.25000  1
 Se  Se8  1  0.86119  0.01533  0.75000  1
 Se  Se9  1  0.65815  0.15340  0.06833  1
 Se  Se10  1  0.15815  0.34660  0.93167  1
 Se  Se11  1  0.84185  0.65340  0.43167  1
 Se  Se12  1  0.34185  0.84660  0.56833  1
