CIF file written using JARVIS-Tools package.
data_U3Si2C2
_symmetry_space_group_name_H-M  'I4/mmm'
_cell_length_a       3.65799
_cell_length_b       3.65799
_cell_length_c       8.89596
_cell_angle_alpha    101.865
_cell_angle_beta     101.865
_cell_angle_gamma    90.0001

_symmetry_Int_Tables_number  139
_chemical_formula_structural  U3Si2C2
_chemical_formula_sum  U3Si2C2
_cell_volume  113.89279842559043
_cell_formula_units_Z  1
loop_
  _symmetry_equiv_pos_site_id
 _symmetry_equiv_pos_as_xyz
 1  'x, y, z'
loop_
 _atom_site_type_symbol
 _atom_site_label
 _atom_site_symmetry_multiplicity
 _atom_site_fract_x
 _atom_site_fract_y
 _atom_site_fract_z
 _atom_site_fract_occupancy
 C  C1  1  0.69538  0.69538  0.39076  1
 C  C2  1  0.30462  0.30462  0.60924  1
 Si  Si1  1  0.58415  0.58415  0.16830  1
 Si  Si2  1  0.41585  0.41585  0.83170  1
 U  U1  1  0.82638  0.82638  0.65275  1
 U  U2  1  0.17362  0.17362  0.34725  1
 U  U3  1  0.00000  0.00000  0.00000  1
