CIF file written using JARVIS-Tools package.
data_Hf3Th
_symmetry_space_group_name_H-M  'P6_3/mmc'
_cell_length_a       6.63523
_cell_length_b       6.63522
_cell_length_c       5.24864
_cell_angle_alpha    90
_cell_angle_beta     90
_cell_angle_gamma    120

_symmetry_Int_Tables_number  194
_chemical_formula_structural  Hf3Th
_chemical_formula_sum  Hf6Th2
_cell_volume  200.11906305091264
_cell_formula_units_Z  2
loop_
  _symmetry_equiv_pos_site_id
 _symmetry_equiv_pos_as_xyz
 1  'x, y, z'
loop_
 _atom_site_type_symbol
 _atom_site_label
 _atom_site_symmetry_multiplicity
 _atom_site_fract_x
 _atom_site_fract_y
 _atom_site_fract_z
 _atom_site_fract_occupancy
 Hf  Hf1  1  0.15397  0.30794  0.25000  1
 Hf  Hf2  1  0.69206  0.84603  0.25000  1
 Hf  Hf3  1  0.15397  0.84603  0.25000  1
 Hf  Hf4  1  0.84603  0.69206  0.75000  1
 Hf  Hf5  1  0.30794  0.15397  0.75000  1
 Hf  Hf6  1  0.84603  0.15397  0.75000  1
 Th  Th1  1  0.33333  0.66667  0.75000  1
 Th  Th2  1  0.66667  0.33333  0.25000  1
