CIF file written using JARVIS-Tools package.
data_Fe2CuS3
_symmetry_space_group_name_H-M  'P3m1'
_cell_length_a       3.57313
_cell_length_b       3.57314
_cell_length_c       8.65393
_cell_angle_alpha    90
_cell_angle_beta     90
_cell_angle_gamma    120

_symmetry_Int_Tables_number  156
_chemical_formula_structural  Fe2CuS3
_chemical_formula_sum  Fe2CuS3
_cell_volume  95.68480774494648
_cell_formula_units_Z  1
loop_
  _symmetry_equiv_pos_site_id
 _symmetry_equiv_pos_as_xyz
 1  'x, y, z'
loop_
 _atom_site_type_symbol
 _atom_site_label
 _atom_site_symmetry_multiplicity
 _atom_site_fract_x
 _atom_site_fract_y
 _atom_site_fract_z
 _atom_site_fract_occupancy
 Cu  Cu1  1  0.33333  0.66667  0.91717  1
 Fe  Fe1  1  0.00000  0.00000  0.26932  1
 Fe  Fe2  1  0.66667  0.33333  0.56635  1
 S  S1  1  0.00000  0.00000  0.01958  1
 S  S2  1  0.66667  0.33333  0.32273  1
 S  S3  1  0.33333  0.66667  0.65484  1
