CIF file written using JARVIS-Tools package.
data_LiFeSi2O6
_symmetry_space_group_name_H-M  'C222'
_cell_length_a       5.38594
_cell_length_b       5.38595
_cell_length_c       5.58961
_cell_angle_alpha    90
_cell_angle_beta     90
_cell_angle_gamma    120.437

_symmetry_Int_Tables_number  21
_chemical_formula_structural  LiFeSi2O6
_chemical_formula_sum  LiFeSi2O6
_cell_volume  139.79959881616617
_cell_formula_units_Z  1
loop_
  _symmetry_equiv_pos_site_id
 _symmetry_equiv_pos_as_xyz
 1  'x, y, z'
loop_
 _atom_site_type_symbol
 _atom_site_label
 _atom_site_symmetry_multiplicity
 _atom_site_fract_x
 _atom_site_fract_y
 _atom_site_fract_z
 _atom_site_fract_occupancy
 Fe  Fe1  1  0.50000  0.50000  0.00000  1
 Li  Li1  1  0.00000  0.00000  0.00000  1
 O  O1  1  0.15374  0.36640  0.16781  1
 O  O2  1  0.63360  0.84626  0.83219  1
 O  O3  1  0.24194  0.75806  0.50000  1
 O  O4  1  0.75806  0.24194  0.50000  1
 O  O5  1  0.36640  0.15374  0.83219  1
 O  O6  1  0.84626  0.63360  0.16781  1
 Si  Si1  1  0.50000  -0.00000  0.66526  1
 Si  Si2  1  0.00000  0.50000  0.33474  1
