CIF file written using JARVIS-Tools package.
data_Ce2Mn3Si4Pd
_symmetry_space_group_name_H-M  'P-4m2'
_cell_length_a       4.03858
_cell_length_b       4.03858
_cell_length_c       10.0919
_cell_angle_alpha    90
_cell_angle_beta     90
_cell_angle_gamma    90

_symmetry_Int_Tables_number  115
_chemical_formula_structural  Ce2Mn3Si4Pd
_chemical_formula_sum  Ce2Mn3Si4Pd
_cell_volume  164.60057696912955
_cell_formula_units_Z  1
loop_
  _symmetry_equiv_pos_site_id
 _symmetry_equiv_pos_as_xyz
 1  'x, y, z'
loop_
 _atom_site_type_symbol
 _atom_site_label
 _atom_site_symmetry_multiplicity
 _atom_site_fract_x
 _atom_site_fract_y
 _atom_site_fract_z
 _atom_site_fract_occupancy
 Ce  Ce1  1  0.50000  0.00000  0.74506  1
 Ce  Ce2  1  0.00000  0.50000  0.25494  1
 Mn  Mn1  1  0.00000  0.00000  0.50000  1
 Mn  Mn2  1  0.00000  0.00000  0.00000  1
 Mn  Mn3  1  0.50000  0.50000  0.50000  1
 Pd  Pd1  1  0.50000  0.50000  0.00000  1
 Si  Si1  1  0.00000  0.50000  0.87317  1
 Si  Si2  1  0.50000  0.00000  0.37729  1
 Si  Si3  1  0.50000  0.00000  0.12683  1
 Si  Si4  1  0.00000  0.50000  0.62271  1
