CIF file written using JARVIS-Tools package.
data_ZnO2F2
_symmetry_space_group_name_H-M  'P-1'
_cell_length_a       3.18659
_cell_length_b       7.86476
_cell_length_c       9.97378
_cell_angle_alpha    140.284
_cell_angle_beta     107.353
_cell_angle_gamma    91.6395

_symmetry_Int_Tables_number  2
_chemical_formula_structural  ZnO2F2
_chemical_formula_sum  Zn2O4F4
_cell_volume  138.13433297942822
_cell_formula_units_Z  2
loop_
  _symmetry_equiv_pos_site_id
 _symmetry_equiv_pos_as_xyz
 1  'x, y, z'
loop_
 _atom_site_type_symbol
 _atom_site_label
 _atom_site_symmetry_multiplicity
 _atom_site_fract_x
 _atom_site_fract_y
 _atom_site_fract_z
 _atom_site_fract_occupancy
 F  F1  1  0.16109  0.29695  0.41994  1
 F  F2  1  0.83891  0.20305  0.08006  1
 F  F3  1  0.83891  0.70305  0.58006  1
 F  F4  1  0.16109  0.79695  0.91994  1
 O  O1  1  0.45890  0.84372  0.27251  1
 O  O2  1  0.54112  0.65628  0.22749  1
 O  O3  1  0.54110  0.15628  0.72749  1
 O  O4  1  0.45888  0.34372  0.77251  1
 Zn  Zn1  1  0.50002  0.25000  0.25000  1
 Zn  Zn2  1  0.49998  0.75000  0.75000  1
