CIF file written using JARVIS-Tools package.
data_Ga2HgTe4
_symmetry_space_group_name_H-M  'I-42m'
_cell_length_a       7.58233
_cell_length_b       7.58233
_cell_length_c       7.58233
_cell_angle_alpha    133.156
_cell_angle_beta     133.156
_cell_angle_gamma    68.4091

_symmetry_Int_Tables_number  121
_chemical_formula_structural  Ga2HgTe4
_chemical_formula_sum  Ga2HgTe4
_cell_volume  227.85869181137843
_cell_formula_units_Z  1
loop_
  _symmetry_equiv_pos_site_id
 _symmetry_equiv_pos_as_xyz
 1  'x, y, z'
loop_
 _atom_site_type_symbol
 _atom_site_label
 _atom_site_symmetry_multiplicity
 _atom_site_fract_x
 _atom_site_fract_y
 _atom_site_fract_z
 _atom_site_fract_occupancy
 Ga  Ga1  1  0.75000  0.25000  0.50000  1
 Ga  Ga2  1  0.25000  0.75000  0.50000  1
 Hg  Hg1  1  0.00000  0.00000  0.00000  1
 Te  Te1  1  0.83789  0.40521  0.00000  1
 Te  Te2  1  0.40521  0.83789  0.00000  1
 Te  Te3  1  0.16211  0.16211  0.56732  1
 Te  Te4  1  0.59479  0.59479  0.43268  1
