CIF file written using JARVIS-Tools package.
data_Zr3CoSe6
_symmetry_space_group_name_H-M  'R-3'
_cell_length_a       7.12312
_cell_length_b       7.12312
_cell_length_c       7.12311
_cell_angle_alpha    54.0367
_cell_angle_beta     54.0368
_cell_angle_gamma    54.0367

_symmetry_Int_Tables_number  148
_chemical_formula_structural  Zr3CoSe6
_chemical_formula_sum  Zr3CoSe6
_cell_volume  219.96958995010644
_cell_formula_units_Z  1
loop_
  _symmetry_equiv_pos_site_id
 _symmetry_equiv_pos_as_xyz
 1  'x, y, z'
loop_
 _atom_site_type_symbol
 _atom_site_label
 _atom_site_symmetry_multiplicity
 _atom_site_fract_x
 _atom_site_fract_y
 _atom_site_fract_z
 _atom_site_fract_occupancy
 Co  Co1  1  0.00000  0.00000  0.00000  1
 Se  Se1  1  0.92225  0.59265  0.25610  1
 Se  Se2  1  0.25610  0.92225  0.59265  1
 Se  Se3  1  0.59265  0.25610  0.92225  1
 Se  Se4  1  0.40735  0.74390  0.07775  1
 Se  Se5  1  0.74390  0.07775  0.40735  1
 Se  Se6  1  0.07775  0.40735  0.74390  1
 Zr  Zr1  1  0.50000  0.50000  0.50000  1
 Zr  Zr2  1  0.16769  0.16769  0.16769  1
 Zr  Zr3  1  0.83231  0.83231  0.83231  1
