CIF file written using JARVIS-Tools package.
data_Er2Ga3Cu
_symmetry_space_group_name_H-M  'P3m1'
_cell_length_a       4.33208
_cell_length_b       4.33208
_cell_length_c       7.12142
_cell_angle_alpha    90
_cell_angle_beta     90
_cell_angle_gamma    120

_symmetry_Int_Tables_number  156
_chemical_formula_structural  Er2Ga3Cu
_chemical_formula_sum  Er2Ga3Cu
_cell_volume  115.74165885534532
_cell_formula_units_Z  1
loop_
  _symmetry_equiv_pos_site_id
 _symmetry_equiv_pos_as_xyz
 1  'x, y, z'
loop_
 _atom_site_type_symbol
 _atom_site_label
 _atom_site_symmetry_multiplicity
 _atom_site_fract_x
 _atom_site_fract_y
 _atom_site_fract_z
 _atom_site_fract_occupancy
 Cu  Cu1  1  0.00000  0.00000  0.53350  1
 Er  Er1  1  0.33333  0.66667  0.73168  1
 Er  Er2  1  0.33333  0.66667  0.26161  1
 Ga  Ga1  1  0.66667  0.33333  0.47834  1
 Ga  Ga2  1  0.66667  0.33333  0.04662  1
 Ga  Ga3  1  0.00000  0.00000  0.94826  1
