CIF file written using JARVIS-Tools package.
data_FeOF
_symmetry_space_group_name_H-M  'Pmn2_1'
_cell_length_a       2.88009
_cell_length_b       4.37006
_cell_length_c       4.56003
_cell_angle_alpha    90.0001
_cell_angle_beta     90
_cell_angle_gamma    90

_symmetry_Int_Tables_number  31
_chemical_formula_structural  FeOF
_chemical_formula_sum  Fe2O2F2
_cell_volume  57.39332533588494
_cell_formula_units_Z  2
loop_
  _symmetry_equiv_pos_site_id
 _symmetry_equiv_pos_as_xyz
 1  'x, y, z'
loop_
 _atom_site_type_symbol
 _atom_site_label
 _atom_site_symmetry_multiplicity
 _atom_site_fract_x
 _atom_site_fract_y
 _atom_site_fract_z
 _atom_site_fract_occupancy
 F  F1  1  0.50000  0.22054  0.82012  1
 F  F2  1  0.00000  0.72054  0.67988  1
 Fe  Fe1  1  0.50000  0.49673  0.46140  1
 Fe  Fe2  1  0.00000  0.99673  0.03860  1
 O  O1  1  -0.00000  0.28272  0.32149  1
 O  O2  1  0.50000  0.78272  0.17851  1
