CIF file written using JARVIS-Tools package.
data_Dy3Mn3Ga2Si
_symmetry_space_group_name_H-M  'P-6'
_cell_length_a       6.89373
_cell_length_b       6.89372
_cell_length_c       4.15195
_cell_angle_alpha    90
_cell_angle_beta     90
_cell_angle_gamma    120

_symmetry_Int_Tables_number  174
_chemical_formula_structural  Dy3Mn3Ga2Si
_chemical_formula_sum  Dy3Mn3Ga2Si
_cell_volume  170.8798860438455
_cell_formula_units_Z  1
loop_
  _symmetry_equiv_pos_site_id
 _symmetry_equiv_pos_as_xyz
 1  'x, y, z'
loop_
 _atom_site_type_symbol
 _atom_site_label
 _atom_site_symmetry_multiplicity
 _atom_site_fract_x
 _atom_site_fract_y
 _atom_site_fract_z
 _atom_site_fract_occupancy
 Dy  Dy1  1  0.00273  0.42370  0.50000  1
 Dy  Dy2  1  0.57630  0.57903  0.50000  1
 Dy  Dy3  1  0.42097  0.99727  0.50000  1
 Ga  Ga1  1  0.00000  0.00000  0.50000  1
 Ga  Ga2  1  0.66667  0.33333  0.00000  1
 Mn  Mn1  1  0.01084  0.77668  0.00000  1
 Mn  Mn2  1  0.22332  0.23416  0.00000  1
 Mn  Mn3  1  0.76584  0.98916  0.00000  1
 Si  Si1  1  0.33333  0.66667  0.00000  1
