CIF file written using JARVIS-Tools package.
data_ErAlSi
_symmetry_space_group_name_H-M  'Cmcm'
_cell_length_a       5.49074
_cell_length_b       5.49074
_cell_length_c       5.68284
_cell_angle_alpha    90
_cell_angle_beta     90
_cell_angle_gamma    137.305

_symmetry_Int_Tables_number  63
_chemical_formula_structural  ErAlSi
_chemical_formula_sum  Er2Al2Si2
_cell_volume  116.17758274448964
_cell_formula_units_Z  2
loop_
  _symmetry_equiv_pos_site_id
 _symmetry_equiv_pos_as_xyz
 1  'x, y, z'
loop_
 _atom_site_type_symbol
 _atom_site_label
 _atom_site_symmetry_multiplicity
 _atom_site_fract_x
 _atom_site_fract_y
 _atom_site_fract_z
 _atom_site_fract_occupancy
 Al  Al1  1  0.00000  0.00000  0.00000  1
 Al  Al2  1  0.00000  0.00000  0.50000  1
 Er  Er1  1  0.69344  0.30656  0.25000  1
 Er  Er2  1  0.30656  0.69344  0.75000  1
 Si  Si1  1  0.39720  0.60280  0.25000  1
 Si  Si2  1  0.60280  0.39720  0.75000  1
