CIF file written using JARVIS-Tools package.
data_SbPdSe
_symmetry_space_group_name_H-M  'P2_13'
_cell_length_a       6.42981
_cell_length_b       6.42981
_cell_length_c       6.42981
_cell_angle_alpha    90
_cell_angle_beta     90
_cell_angle_gamma    90

_symmetry_Int_Tables_number  198
_chemical_formula_structural  SbPdSe
_chemical_formula_sum  Sb4Pd4Se4
_cell_volume  265.8246394498268
_cell_formula_units_Z  4
loop_
  _symmetry_equiv_pos_site_id
 _symmetry_equiv_pos_as_xyz
 1  'x, y, z'
loop_
 _atom_site_type_symbol
 _atom_site_label
 _atom_site_symmetry_multiplicity
 _atom_site_fract_x
 _atom_site_fract_y
 _atom_site_fract_z
 _atom_site_fract_occupancy
 Pd  Pd1  1  0.74713  0.24713  0.25287  1
 Pd  Pd2  1  0.24713  0.25287  0.74713  1
 Pd  Pd3  1  0.25287  0.74713  0.24713  1
 Pd  Pd4  1  0.75287  0.75287  0.75287  1
 Sb  Sb1  1  0.87340  0.62660  0.37340  1
 Sb  Sb2  1  0.37340  0.87340  0.62660  1
 Sb  Sb3  1  0.12660  0.12660  0.12660  1
 Sb  Sb4  1  0.62660  0.37340  0.87340  1
 Se  Se1  1  0.36796  0.36796  0.36796  1
 Se  Se2  1  0.13204  0.63204  0.86796  1
 Se  Se3  1  0.86796  0.13204  0.63204  1
 Se  Se4  1  0.63204  0.86796  0.13204  1
