CIF file written using JARVIS-Tools package.
data_NdYO2
_symmetry_space_group_name_H-M  'R-3m'
_cell_length_a       6.23154
_cell_length_b       6.23154
_cell_length_c       6.23154
_cell_angle_alpha    32.0475
_cell_angle_beta     32.0475
_cell_angle_gamma    32.0475

_symmetry_Int_Tables_number  166
_chemical_formula_structural  NdYO2
_chemical_formula_sum  NdYO2
_cell_volume  60.54013491317513
_cell_formula_units_Z  1
loop_
  _symmetry_equiv_pos_site_id
 _symmetry_equiv_pos_as_xyz
 1  'x, y, z'
loop_
 _atom_site_type_symbol
 _atom_site_label
 _atom_site_symmetry_multiplicity
 _atom_site_fract_x
 _atom_site_fract_y
 _atom_site_fract_z
 _atom_site_fract_occupancy
 Nd  Nd1  1  0.00000  0.00000  0.00000  1
 O  O1  1  0.23466  0.23466  0.23466  1
 O  O2  1  0.76534  0.76534  0.76534  1
 Y  Y1  1  0.50000  0.50000  0.50000  1
