CIF file written using JARVIS-Tools package.
data_Nb3AlV3Sn
_symmetry_space_group_name_H-M  'R3'
_cell_length_a       5.0979
_cell_length_b       5.0979
_cell_length_c       5.0979
_cell_angle_alpha    91.0626
_cell_angle_beta     91.0626
_cell_angle_gamma    91.0625

_symmetry_Int_Tables_number  146
_chemical_formula_structural  Nb3AlV3Sn
_chemical_formula_sum  Nb3AlV3Sn
_cell_volume  132.41778270837943
_cell_formula_units_Z  1
loop_
  _symmetry_equiv_pos_site_id
 _symmetry_equiv_pos_as_xyz
 1  'x, y, z'
loop_
 _atom_site_type_symbol
 _atom_site_label
 _atom_site_symmetry_multiplicity
 _atom_site_fract_x
 _atom_site_fract_y
 _atom_site_fract_z
 _atom_site_fract_occupancy
 Al  Al1  1  0.49081  0.49081  0.49081  1
 Nb  Nb1  1  0.73860  0.00254  0.50312  1
 Nb  Nb2  1  0.00254  0.50312  0.73860  1
 Nb  Nb3  1  0.50312  0.73860  0.00254  1
 Sn  Sn1  1  0.01327  0.01327  0.01327  1
 V  V1  1  0.25581  0.98365  0.51219  1
 V  V2  1  0.98365  0.51219  0.25581  1
 V  V3  1  0.51219  0.25581  0.98365  1
