CIF file written using JARVIS-Tools package.
data_Yb5Mg
_symmetry_space_group_name_H-M  'R32'
_cell_length_a       7.04428
_cell_length_b       7.04428
_cell_length_c       7.04427
_cell_angle_alpha    53.6774
_cell_angle_beta     53.6774
_cell_angle_gamma    53.6774

_symmetry_Int_Tables_number  155
_chemical_formula_structural  Yb5Mg
_chemical_formula_sum  Yb5Mg
_cell_volume  210.6243262662691
_cell_formula_units_Z  1
loop_
  _symmetry_equiv_pos_site_id
 _symmetry_equiv_pos_as_xyz
 1  'x, y, z'
loop_
 _atom_site_type_symbol
 _atom_site_label
 _atom_site_symmetry_multiplicity
 _atom_site_fract_x
 _atom_site_fract_y
 _atom_site_fract_z
 _atom_site_fract_occupancy
 Mg  Mg1  1  0.00000  0.00000  0.00000  1
 Yb  Yb1  1  0.84017  0.50000  0.15983  1
 Yb  Yb2  1  0.50000  0.15983  0.84017  1
 Yb  Yb3  1  0.15983  0.84017  0.50000  1
 Yb  Yb4  1  0.66491  0.66491  0.66491  1
 Yb  Yb5  1  0.33509  0.33509  0.33509  1
