CIF file written using JARVIS-Tools package.
data_Li2MnCrO4
_symmetry_space_group_name_H-M  'I-4m2'
_cell_length_a       5.14641
_cell_length_b       5.14644
_cell_length_c       5.14645
_cell_angle_alpha    133.662
_cell_angle_beta     133.658
_cell_angle_gamma    67.6193

_symmetry_Int_Tables_number  119
_chemical_formula_structural  Li2MnCrO4
_chemical_formula_sum  Li2MnCrO4
_cell_volume  70.13290472921234
_cell_formula_units_Z  1
loop_
  _symmetry_equiv_pos_site_id
 _symmetry_equiv_pos_as_xyz
 1  'x, y, z'
loop_
 _atom_site_type_symbol
 _atom_site_label
 _atom_site_symmetry_multiplicity
 _atom_site_fract_x
 _atom_site_fract_y
 _atom_site_fract_z
 _atom_site_fract_occupancy
 Cr  Cr1  1  0.75000  0.25000  0.50000  1
 Li  Li1  1  0.25002  0.75001  0.50000  1
 Li  Li2  1  0.50000  0.50001  0.00000  1
 Mn  Mn1  1  0.00000  0.00001  0.00001  1
 O  O1  1  0.51660  0.01660  0.49999  1
 O  O2  1  0.23117  0.23116  0.99999  1
 O  O3  1  0.98339  0.48339  0.49999  1
 O  O4  1  0.76882  0.76881  0.00000  1
