CIF file written using JARVIS-Tools package.
data_V3Rh5
_symmetry_space_group_name_H-M  'Amm2'
_cell_length_a       5.40801
_cell_length_b       5.408
_cell_length_c       4.31514
_cell_angle_alpha    90
_cell_angle_beta     90
_cell_angle_gamma    119.665

_symmetry_Int_Tables_number  38
_chemical_formula_structural  V3Rh5
_chemical_formula_sum  V3Rh5
_cell_volume  109.66217807752446
_cell_formula_units_Z  1
loop_
  _symmetry_equiv_pos_site_id
 _symmetry_equiv_pos_as_xyz
 1  'x, y, z'
loop_
 _atom_site_type_symbol
 _atom_site_label
 _atom_site_symmetry_multiplicity
 _atom_site_fract_x
 _atom_site_fract_y
 _atom_site_fract_z
 _atom_site_fract_occupancy
 Rh  Rh1  1  0.41623  0.58377  0.00000  1
 Rh  Rh2  1  0.59230  0.91045  0.50000  1
 Rh  Rh3  1  0.08955  0.40770  0.50000  1
 Rh  Rh4  1  0.41124  0.08890  0.00000  1
 Rh  Rh5  1  0.91110  0.58876  0.00000  1
 V  V1  1  0.91095  0.08905  0.00000  1
 V  V2  1  0.58154  0.41846  0.50000  1
 V  V3  1  0.08709  0.91291  0.50000  1
