CIF file written using JARVIS-Tools package.
data_HoAlSi
_symmetry_space_group_name_H-M  'Cmcm'
_cell_length_a       5.50564
_cell_length_b       5.50564
_cell_length_c       5.6893
_cell_angle_alpha    90
_cell_angle_beta     90
_cell_angle_gamma    137.478

_symmetry_Int_Tables_number  63
_chemical_formula_structural  HoAlSi
_chemical_formula_sum  Ho2Al2Si2
_cell_volume  116.557071836779
_cell_formula_units_Z  2
loop_
  _symmetry_equiv_pos_site_id
 _symmetry_equiv_pos_as_xyz
 1  'x, y, z'
loop_
 _atom_site_type_symbol
 _atom_site_label
 _atom_site_symmetry_multiplicity
 _atom_site_fract_x
 _atom_site_fract_y
 _atom_site_fract_z
 _atom_site_fract_occupancy
 Al  Al1  1  0.00000  0.00000  0.00000  1
 Al  Al2  1  0.00000  0.00000  0.50000  1
 Ho  Ho1  1  0.69329  0.30671  0.25000  1
 Ho  Ho2  1  0.30671  0.69329  0.75000  1
 Si  Si1  1  0.39790  0.60210  0.25000  1
 Si  Si2  1  0.60210  0.39790  0.75000  1
