CIF file written using JARVIS-Tools package.
data_LiV2CrO6
_symmetry_space_group_name_H-M  'R3'
_cell_length_a       5.34661
_cell_length_b       5.34675
_cell_length_c       5.34664
_cell_angle_alpha    54.7832
_cell_angle_beta     54.7849
_cell_angle_gamma    54.7829

_symmetry_Int_Tables_number  146
_chemical_formula_structural  LiV2CrO6
_chemical_formula_sum  LiV2CrO6
_cell_volume  94.94885791764483
_cell_formula_units_Z  1
loop_
  _symmetry_equiv_pos_site_id
 _symmetry_equiv_pos_as_xyz
 1  'x, y, z'
loop_
 _atom_site_type_symbol
 _atom_site_label
 _atom_site_symmetry_multiplicity
 _atom_site_fract_x
 _atom_site_fract_y
 _atom_site_fract_z
 _atom_site_fract_occupancy
 Cr  Cr1  1  0.80529  0.80526  0.80518  1
 Li  Li1  1  0.28879  0.28881  0.28873  1
 O  O1  1  0.08847  0.73129  0.38763  1
 O  O2  1  0.38771  0.08845  0.73123  1
 O  O3  1  0.73131  0.38770  0.08838  1
 O  O4  1  0.21965  0.60992  0.86967  1
 O  O5  1  0.60996  0.86973  0.21957  1
 O  O6  1  0.86974  0.21962  0.60988  1
 V  V1  1  0.00223  0.00227  0.00211  1
 V  V2  1  0.49766  0.49775  0.49761  1
