CIF file written using JARVIS-Tools package.
data_YbKI3
_symmetry_space_group_name_H-M  'Cmcm'
_cell_length_a       7.80164
_cell_length_b       7.80163
_cell_length_c       11.5554
_cell_angle_alpha    90
_cell_angle_beta     90
_cell_angle_gamma    146.376

_symmetry_Int_Tables_number  63
_chemical_formula_structural  YbKI3
_chemical_formula_sum  Yb2K2I6
_cell_volume  389.4593200728498
_cell_formula_units_Z  2
loop_
  _symmetry_equiv_pos_site_id
 _symmetry_equiv_pos_as_xyz
 1  'x, y, z'
loop_
 _atom_site_type_symbol
 _atom_site_label
 _atom_site_symmetry_multiplicity
 _atom_site_fract_x
 _atom_site_fract_y
 _atom_site_fract_z
 _atom_site_fract_occupancy
 I  I1  1  0.63725  0.36275  0.05703  1
 I  I2  1  0.36275  0.63725  0.94297  1
 I  I3  1  0.36275  0.63725  0.55703  1
 I  I4  1  0.63725  0.36275  0.44297  1
 I  I5  1  0.92922  0.07078  0.25000  1
 I  I6  1  0.07078  0.92922  0.75000  1
 K  K1  1  0.25137  0.74863  0.25000  1
 K  K2  1  0.74863  0.25137  0.75000  1
 Yb  Yb1  1  0.00000  0.00000  0.00000  1
 Yb  Yb2  1  0.00000  0.00000  0.50000  1
