CIF file written using JARVIS-Tools package.
data_Nb2FeS4
_symmetry_space_group_name_H-M  'P-3m1'
_cell_length_a       3.34988
_cell_length_b       3.34988
_cell_length_c       11.8588
_cell_angle_alpha    90
_cell_angle_beta     90
_cell_angle_gamma    120

_symmetry_Int_Tables_number  164
_chemical_formula_structural  Nb2FeS4
_chemical_formula_sum  Nb2FeS4
_cell_volume  115.2473226318237
_cell_formula_units_Z  1
loop_
  _symmetry_equiv_pos_site_id
 _symmetry_equiv_pos_as_xyz
 1  'x, y, z'
loop_
 _atom_site_type_symbol
 _atom_site_label
 _atom_site_symmetry_multiplicity
 _atom_site_fract_x
 _atom_site_fract_y
 _atom_site_fract_z
 _atom_site_fract_occupancy
 Fe  Fe1  1  0.00000  0.00000  0.50000  1
 Nb  Nb1  1  0.00000  0.00000  0.25692  1
 Nb  Nb2  1  0.00000  0.00000  0.74308  1
 S  S1  1  0.33333  0.66667  0.87566  1
 S  S2  1  0.66667  0.33333  0.12434  1
 S  S3  1  0.66667  0.33333  0.39622  1
 S  S4  1  0.33333  0.66667  0.60378  1
