CIF file written using JARVIS-Tools package.
data_Tb2CdNi2
_symmetry_space_group_name_H-M  'P4/mbm'
_cell_length_a       7.36192
_cell_length_b       7.36192
_cell_length_c       3.6638
_cell_angle_alpha    90
_cell_angle_beta     90
_cell_angle_gamma    90

_symmetry_Int_Tables_number  127
_chemical_formula_structural  Tb2CdNi2
_chemical_formula_sum  Tb4Cd2Ni4
_cell_volume  198.5701331615894
_cell_formula_units_Z  2
loop_
  _symmetry_equiv_pos_site_id
 _symmetry_equiv_pos_as_xyz
 1  'x, y, z'
loop_
 _atom_site_type_symbol
 _atom_site_label
 _atom_site_symmetry_multiplicity
 _atom_site_fract_x
 _atom_site_fract_y
 _atom_site_fract_z
 _atom_site_fract_occupancy
 Cd  Cd1  1  0.00000  0.00000  0.00000  1
 Cd  Cd2  1  0.50000  0.50000  0.00000  1
 Ni  Ni1  1  0.11884  0.61884  0.00000  1
 Ni  Ni2  1  0.88116  0.38116  0.00000  1
 Ni  Ni3  1  0.61884  0.88116  0.00000  1
 Ni  Ni4  1  0.38116  0.11884  0.00000  1
 Tb  Tb1  1  0.67546  0.17546  0.50000  1
 Tb  Tb2  1  0.32454  0.82454  0.50000  1
 Tb  Tb3  1  0.17546  0.32454  0.50000  1
 Tb  Tb4  1  0.82454  0.67546  0.50000  1
