CIF file written using JARVIS-Tools package.
data_Cr2S2BrCl
_symmetry_space_group_name_H-M  'Pmm2'
_cell_length_a       3.4951
_cell_length_b       4.74706
_cell_length_c       7.6635
_cell_angle_alpha    90
_cell_angle_beta     90
_cell_angle_gamma    90

_symmetry_Int_Tables_number  25
_chemical_formula_structural  Cr2S2BrCl
_chemical_formula_sum  Cr2S2BrCl
_cell_volume  127.14838315437166
_cell_formula_units_Z  1
loop_
  _symmetry_equiv_pos_site_id
 _symmetry_equiv_pos_as_xyz
 1  'x, y, z'
loop_
 _atom_site_type_symbol
 _atom_site_label
 _atom_site_symmetry_multiplicity
 _atom_site_fract_x
 _atom_site_fract_y
 _atom_site_fract_z
 _atom_site_fract_occupancy
 Br  Br1  1  0.50000  0.50000  0.36376  1
 Cl  Cl1  1  0.00000  0.00000  0.65108  1
 Cr  Cr1  1  0.00000  0.50000  0.12994  1
 Cr  Cr2  1  0.50000  0.00000  0.86217  1
 S  S1  1  0.50000  0.50000  0.91830  1
 S  S2  1  0.00000  0.00000  0.07475  1
