CIF file written using JARVIS-Tools package.
data_ZrCrW
_symmetry_space_group_name_H-M  'Imma'
_cell_length_a       5.21697
_cell_length_b       5.21698
_cell_length_c       5.21698
_cell_angle_alpha    120.572
_cell_angle_beta     118.541
_cell_angle_gamma    90.7786

_symmetry_Int_Tables_number  74
_chemical_formula_structural  ZrCrW
_chemical_formula_sum  Zr2Cr2W2
_cell_volume  101.02534632382978
_cell_formula_units_Z  2
loop_
  _symmetry_equiv_pos_site_id
 _symmetry_equiv_pos_as_xyz
 1  'x, y, z'
loop_
 _atom_site_type_symbol
 _atom_site_label
 _atom_site_symmetry_multiplicity
 _atom_site_fract_x
 _atom_site_fract_y
 _atom_site_fract_z
 _atom_site_fract_occupancy
 Cr  Cr1  1  0.00000  0.50000  -0.00000  1
 Cr  Cr2  1  -0.00000  -0.00000  0.50000  1
 W  W1  1  0.50000  0.50000  0.00000  1
 W  W2  1  0.00000  0.50000  0.50000  1
 Zr  Zr1  1  0.37263  0.12263  0.25000  1
 Zr  Zr2  1  0.62737  0.87737  0.75000  1
