CIF file written using JARVIS-Tools package.
data_TbK2F6
_symmetry_space_group_name_H-M  'C2/c'
_cell_length_a       6.63361
_cell_length_b       6.63361
_cell_length_c       7.31896
_cell_angle_alpha    90.9453
_cell_angle_beta     90.9453
_cell_angle_gamma    118.335

_symmetry_Int_Tables_number  15
_chemical_formula_structural  TbK2F6
_chemical_formula_sum  Tb2K4F2
_cell_volume  283.3356839425822
_cell_formula_units_Z  2
loop_
  _symmetry_equiv_pos_site_id
 _symmetry_equiv_pos_as_xyz
 1  'x, y, z'
loop_
 _atom_site_type_symbol
 _atom_site_label
 _atom_site_symmetry_multiplicity
 _atom_site_fract_x
 _atom_site_fract_y
 _atom_site_fract_z
 _atom_site_fract_occupancy
 F  F1  1  0.67004  0.70626  0.29742  1
 F  F2  1  0.05545  0.84209  0.54419  1
 F  F3  1  0.84209  0.05545  0.04419  1
 F  F4  1  0.94455  0.15791  0.45581  1
 F  F5  1  0.99040  0.59514  0.21722  1
 F  F6  1  0.40486  0.00960  0.28278  1
 F  F7  1  0.70626  0.67004  0.79742  1
 F  F8  1  0.15791  0.94455  0.95581  1
 F  F9  1  0.29374  0.32996  0.20258  1
 F  F10  1  0.59514  0.99040  0.71722  1
 F  F11  1  0.00960  0.40486  0.78278  1
 F  F12  1  0.32996  0.29374  0.70258  1
 K  K1  1  0.63044  0.30852  0.99727  1
 K  K2  1  0.69148  0.36956  0.50273  1
 K  K3  1  0.30852  0.63044  0.49727  1
 K  K4  1  0.36956  0.69148  0.00273  1
 Tb  Tb1  1  0.95889  0.04111  0.75000  1
 Tb  Tb2  1  0.04111  0.95889  0.25000  1
