CIF file written using JARVIS-Tools package.
data_CdSb
_symmetry_space_group_name_H-M  'Pmmm'
_cell_length_a       3.0861
_cell_length_b       3.25588
_cell_length_c       5.47936
_cell_angle_alpha    90
_cell_angle_beta     90
_cell_angle_gamma    90

_symmetry_Int_Tables_number  47
_chemical_formula_structural  CdSb
_chemical_formula_sum  CdSb
_cell_volume  55.056482100723436
_cell_formula_units_Z  1
loop_
  _symmetry_equiv_pos_site_id
 _symmetry_equiv_pos_as_xyz
 1  'x, y, z'
loop_
 _atom_site_type_symbol
 _atom_site_label
 _atom_site_symmetry_multiplicity
 _atom_site_fract_x
 _atom_site_fract_y
 _atom_site_fract_z
 _atom_site_fract_occupancy
 Cd  Cd1  1  0.00000  0.00000  0.00000  1
 Sb  Sb1  1  0.00000  0.50000  0.50000  1
