CIF file written using JARVIS-Tools package.
data_MgSn
_symmetry_space_group_name_H-M  'C2/m'
_cell_length_a       5.96443
_cell_length_b       5.96443
_cell_length_c       5.18075
_cell_angle_alpha    75.0823
_cell_angle_beta     75.0823
_cell_angle_gamma    33.1938

_symmetry_Int_Tables_number  12
_chemical_formula_structural  MgSn
_chemical_formula_sum  Mg2Sn2
_cell_volume  97.1918178193045
_cell_formula_units_Z  2
loop_
  _symmetry_equiv_pos_site_id
 _symmetry_equiv_pos_as_xyz
 1  'x, y, z'
loop_
 _atom_site_type_symbol
 _atom_site_label
 _atom_site_symmetry_multiplicity
 _atom_site_fract_x
 _atom_site_fract_y
 _atom_site_fract_z
 _atom_site_fract_occupancy
 Mg  Mg1  1  0.37255  0.37255  0.77329  1
 Mg  Mg2  1  0.62745  0.62745  0.22671  1
 Sn  Sn1  1  0.11415  0.11415  0.73799  1
 Sn  Sn2  1  0.88585  0.88585  0.26201  1
