CIF file written using JARVIS-Tools package.
data_ThFe2Co3
_symmetry_space_group_name_H-M  'Cmmm'
_cell_length_a       5.0335
_cell_length_b       5.0335
_cell_length_c       4.03553
_cell_angle_alpha    90
_cell_angle_beta     90
_cell_angle_gamma    122.517

_symmetry_Int_Tables_number  65
_chemical_formula_structural  ThFe2Co3
_chemical_formula_sum  ThFe2Co3
_cell_volume  86.21569717983219
_cell_formula_units_Z  1
loop_
  _symmetry_equiv_pos_site_id
 _symmetry_equiv_pos_as_xyz
 1  'x, y, z'
loop_
 _atom_site_type_symbol
 _atom_site_label
 _atom_site_symmetry_multiplicity
 _atom_site_fract_x
 _atom_site_fract_y
 _atom_site_fract_z
 _atom_site_fract_occupancy
 Co  Co1  1  0.50000  0.50000  0.50000  1
 Co  Co2  1  0.68802  0.31198  0.00000  1
 Co  Co3  1  0.31198  0.68802  0.00000  1
 Fe  Fe1  1  0.50000  -0.00000  0.50000  1
 Fe  Fe2  1  0.00000  0.50000  0.50000  1
 Th  Th1  1  0.00000  0.00000  0.00000  1
