CIF file written using JARVIS-Tools package.
data_LiBiB2O6
_symmetry_space_group_name_H-M  'R-3'
_cell_length_a       5.83302
_cell_length_b       5.83302
_cell_length_c       5.83302
_cell_angle_alpha    49.0869
_cell_angle_beta     49.0868
_cell_angle_gamma    49.087

_symmetry_Int_Tables_number  148
_chemical_formula_structural  LiBiB2O6
_chemical_formula_sum  LiBiB2O6
_cell_volume  104.08722150115572
_cell_formula_units_Z  1
loop_
  _symmetry_equiv_pos_site_id
 _symmetry_equiv_pos_as_xyz
 1  'x, y, z'
loop_
 _atom_site_type_symbol
 _atom_site_label
 _atom_site_symmetry_multiplicity
 _atom_site_fract_x
 _atom_site_fract_y
 _atom_site_fract_z
 _atom_site_fract_occupancy
 B  B1  1  0.25242  0.25242  0.25242  1
 B  B2  1  0.74758  0.74758  0.74758  1
 Bi  Bi1  1  0.00000  0.00000  0.00000  1
 Li  Li1  1  0.50000  0.50000  0.50000  1
 O  O1  1  0.74154  0.03736  0.46665  1
 O  O2  1  0.96264  0.53335  0.25846  1
 O  O3  1  0.53335  0.25846  0.96264  1
 O  O4  1  0.46665  0.74154  0.03736  1
 O  O5  1  0.03736  0.46665  0.74154  1
 O  O6  1  0.25846  0.96264  0.53335  1
