CIF file written using JARVIS-Tools package.
data_Mg6CdIn
_symmetry_space_group_name_H-M  'P-6m2'
_cell_length_a       6.30315
_cell_length_b       6.30315
_cell_length_c       5.14649
_cell_angle_alpha    90
_cell_angle_beta     90
_cell_angle_gamma    120

_symmetry_Int_Tables_number  187
_chemical_formula_structural  Mg6CdIn
_chemical_formula_sum  Mg6CdIn
_cell_volume  177.0750879925311
_cell_formula_units_Z  1
loop_
  _symmetry_equiv_pos_site_id
 _symmetry_equiv_pos_as_xyz
 1  'x, y, z'
loop_
 _atom_site_type_symbol
 _atom_site_label
 _atom_site_symmetry_multiplicity
 _atom_site_fract_x
 _atom_site_fract_y
 _atom_site_fract_z
 _atom_site_fract_occupancy
 Cd  Cd1  1  0.66667  0.33333  0.50000  1
 In  In1  1  0.33333  0.66667  0.00000  1
 Mg  Mg1  1  0.66791  0.83395  0.50000  1
 Mg  Mg2  1  0.16605  0.83395  0.50000  1
 Mg  Mg3  1  0.16605  0.33209  0.50000  1
 Mg  Mg4  1  0.33595  0.16798  0.00000  1
 Mg  Mg5  1  0.83202  0.16798  0.00000  1
 Mg  Mg6  1  0.83202  0.66405  0.00000  1
