CIF file written using JARVIS-Tools package.
data_Pr2Ge2Ru
_symmetry_space_group_name_H-M  'C2/m'
_cell_length_a       6.06478
_cell_length_b       6.06478
_cell_length_c       10.7306
_cell_angle_alpha    62.3575
_cell_angle_beta     62.3576
_cell_angle_gamma    42.1443

_symmetry_Int_Tables_number  12
_chemical_formula_structural  Pr2Ge2Ru
_chemical_formula_sum  Pr4Ge4Ru2
_cell_volume  229.78216670853638
_cell_formula_units_Z  2
loop_
  _symmetry_equiv_pos_site_id
 _symmetry_equiv_pos_as_xyz
 1  'x, y, z'
loop_
 _atom_site_type_symbol
 _atom_site_label
 _atom_site_symmetry_multiplicity
 _atom_site_fract_x
 _atom_site_fract_y
 _atom_site_fract_z
 _atom_site_fract_occupancy
 Ge  Ge1  1  0.65745  0.65745  0.43028  1
 Ge  Ge2  1  0.34255  0.34255  0.56972  1
 Ge  Ge3  1  0.50408  0.50408  0.12897  1
 Ge  Ge4  1  0.49592  0.49592  0.87103  1
 Pr  Pr1  1  0.00448  0.00448  0.32612  1
 Pr  Pr2  1  0.99552  0.99552  0.67388  1
 Pr  Pr3  1  0.81503  0.81503  0.10763  1
 Pr  Pr4  1  0.18497  0.18497  0.89237  1
 Ru  Ru1  1  0.72254  0.72254  0.62325  1
 Ru  Ru2  1  0.27746  0.27746  0.37675  1
