CIF file written using JARVIS-Tools package.
data_Ba2NbBiO6
_symmetry_space_group_name_H-M  'R-3'
_cell_length_a       6.08655
_cell_length_b       6.08656
_cell_length_c       6.08656
_cell_angle_alpha    60.8098
_cell_angle_beta     60.8099
_cell_angle_gamma    60.8098

_symmetry_Int_Tables_number  148
_chemical_formula_structural  Ba2NbBiO6
_chemical_formula_sum  Ba2NbBiO6
_cell_volume  162.35303366637396
_cell_formula_units_Z  1
loop_
  _symmetry_equiv_pos_site_id
 _symmetry_equiv_pos_as_xyz
 1  'x, y, z'
loop_
 _atom_site_type_symbol
 _atom_site_label
 _atom_site_symmetry_multiplicity
 _atom_site_fract_x
 _atom_site_fract_y
 _atom_site_fract_z
 _atom_site_fract_occupancy
 Ba  Ba1  1  0.25133  0.25133  0.25133  1
 Ba  Ba2  1  0.74867  0.74867  0.74867  1
 Bi  Bi1  1  0.00000  0.00000  0.00000  1
 Nb  Nb1  1  0.50000  0.50000  0.50000  1
 O  O1  1  0.72613  0.21273  0.32574  1
 O  O2  1  0.21273  0.32574  0.72613  1
 O  O3  1  0.32574  0.72613  0.21273  1
 O  O4  1  0.27387  0.78727  0.67426  1
 O  O5  1  0.67426  0.27387  0.78727  1
 O  O6  1  0.78727  0.67426  0.27387  1
