CIF file written using JARVIS-Tools package.
data_VAg4O4
_symmetry_space_group_name_H-M  'I-4'
_cell_length_a       5.9841
_cell_length_b       5.98411
_cell_length_c       5.98411
_cell_angle_alpha    97.5192
_cell_angle_beta     97.5192
_cell_angle_gamma    137.585

_symmetry_Int_Tables_number  82
_chemical_formula_structural  VAg4O4
_chemical_formula_sum  VAg4O4
_cell_volume  134.74735752816363
_cell_formula_units_Z  1
loop_
  _symmetry_equiv_pos_site_id
 _symmetry_equiv_pos_as_xyz
 1  'x, y, z'
loop_
 _atom_site_type_symbol
 _atom_site_label
 _atom_site_symmetry_multiplicity
 _atom_site_fract_x
 _atom_site_fract_y
 _atom_site_fract_z
 _atom_site_fract_occupancy
 Ag  Ag1  1  0.56767  0.83384  0.40941  1
 Ag  Ag2  1  0.42442  0.15825  0.59059  1
 Ag  Ag3  1  0.84175  0.43233  0.26617  1
 Ag  Ag4  1  0.16616  0.57558  0.73383  1
 O  O1  1  0.37100  0.32671  0.25954  1
 O  O2  1  0.06717  0.11147  0.74046  1
 O  O3  1  0.88853  0.62900  0.95571  1
 O  O4  1  0.67329  0.93283  0.04429  1
 V  V1  1  0.00000  0.00000  0.00000  1
