CIF file written using JARVIS-Tools package.
data_TbBiTe3
_symmetry_space_group_name_H-M  'R3m'
_cell_length_a       10.7743
_cell_length_b       10.7743
_cell_length_c       10.7743
_cell_angle_alpha    23.563
_cell_angle_beta     23.563
_cell_angle_gamma    23.563

_symmetry_Int_Tables_number  160
_chemical_formula_structural  TbBiTe3
_chemical_formula_sum  TbBiTe3
_cell_volume  175.5333981543513
_cell_formula_units_Z  1
loop_
  _symmetry_equiv_pos_site_id
 _symmetry_equiv_pos_as_xyz
 1  'x, y, z'
loop_
 _atom_site_type_symbol
 _atom_site_label
 _atom_site_symmetry_multiplicity
 _atom_site_fract_x
 _atom_site_fract_y
 _atom_site_fract_z
 _atom_site_fract_occupancy
 Bi  Bi1  1  0.39961  0.39961  0.39961  1
 Tb  Tb1  1  0.60126  0.60126  0.60126  1
 Te  Te1  1  0.99596  0.99596  0.99596  1
 Te  Te2  1  0.78740  0.78740  0.78740  1
 Te  Te3  1  0.21577  0.21577  0.21577  1
