CIF file written using JARVIS-Tools package.
data_TbGaAu
_symmetry_space_group_name_H-M  'C2/m'
_cell_length_a       5.70394
_cell_length_b       5.70394
_cell_length_c       7.1549
_cell_angle_alpha    52.2913
_cell_angle_beta     52.2913
_cell_angle_gamma    46.3509

_symmetry_Int_Tables_number  12
_chemical_formula_structural  TbGaAu
_chemical_formula_sum  Tb2Ga2Au2
_cell_volume  125.7461834695512
_cell_formula_units_Z  2
loop_
  _symmetry_equiv_pos_site_id
 _symmetry_equiv_pos_as_xyz
 1  'x, y, z'
loop_
 _atom_site_type_symbol
 _atom_site_label
 _atom_site_symmetry_multiplicity
 _atom_site_fract_x
 _atom_site_fract_y
 _atom_site_fract_z
 _atom_site_fract_occupancy
 Au  Au1  1  0.17731  0.17731  0.28653  1
 Au  Au2  1  0.82269  0.82269  0.71347  1
 Ga  Ga1  1  0.84327  0.84327  0.10402  1
 Ga  Ga2  1  0.15673  0.15673  0.89598  1
 Tb  Tb1  1  0.53682  0.53682  0.70214  1
 Tb  Tb2  1  0.46318  0.46318  0.29786  1
