CIF file written using JARVIS-Tools package.
data_Ti3FeS6
_symmetry_space_group_name_H-M  'R-3'
_cell_length_a       6.4877
_cell_length_b       6.4877
_cell_length_c       6.4877
_cell_angle_alpha    53.5083
_cell_angle_beta     53.5083
_cell_angle_gamma    53.5083

_symmetry_Int_Tables_number  148
_chemical_formula_structural  Ti3FeS6
_chemical_formula_sum  Ti3FeS6
_cell_volume  163.75934895042568
_cell_formula_units_Z  1
loop_
  _symmetry_equiv_pos_site_id
 _symmetry_equiv_pos_as_xyz
 1  'x, y, z'
loop_
 _atom_site_type_symbol
 _atom_site_label
 _atom_site_symmetry_multiplicity
 _atom_site_fract_x
 _atom_site_fract_y
 _atom_site_fract_z
 _atom_site_fract_occupancy
 Fe  Fe1  1  0.50000  0.50000  0.50000  1
 S  S1  1  0.90414  0.58120  0.24958  1
 S  S2  1  0.58120  0.24958  0.90414  1
 S  S3  1  0.24958  0.90414  0.58120  1
 S  S4  1  0.75042  0.09586  0.41880  1
 S  S5  1  0.41880  0.75042  0.09586  1
 S  S6  1  0.09586  0.41880  0.75042  1
 Ti  Ti1  1  0.00000  0.00000  0.00000  1
 Ti  Ti2  1  0.32956  0.32956  0.32956  1
 Ti  Ti3  1  0.67044  0.67044  0.67044  1
