CIF file written using JARVIS-Tools package.
data_Ca2Zn3Ag
_symmetry_space_group_name_H-M  'Cm'
_cell_length_a       5.76361
_cell_length_b       5.76361
_cell_length_c       7.31894
_cell_angle_alpha    50.9941
_cell_angle_beta     50.9941
_cell_angle_gamma    46.9613

_symmetry_Int_Tables_number  8
_chemical_formula_structural  Ca2Zn3Ag
_chemical_formula_sum  Ca2Zn3Ag
_cell_volume  129.2583104909683
_cell_formula_units_Z  1
loop_
  _symmetry_equiv_pos_site_id
 _symmetry_equiv_pos_as_xyz
 1  'x, y, z'
loop_
 _atom_site_type_symbol
 _atom_site_label
 _atom_site_symmetry_multiplicity
 _atom_site_fract_x
 _atom_site_fract_y
 _atom_site_fract_z
 _atom_site_fract_occupancy
 Ag  Ag1  1  0.16182  0.16182  0.28457  1
 Ca  Ca1  1  0.54772  0.54772  0.69948  1
 Ca  Ca2  1  0.45268  0.45268  0.29709  1
 Zn  Zn1  1  0.82834  0.82834  0.73249  1
 Zn  Zn2  1  0.84259  0.84259  0.09978  1
 Zn  Zn3  1  0.16684  0.16684  0.88659  1
