CIF file written using JARVIS-Tools package.
data_AlGeMo
_symmetry_space_group_name_H-M  'P3_212'
_cell_length_a       4.86583
_cell_length_b       4.86584
_cell_length_c       6.72469
_cell_angle_alpha    90
_cell_angle_beta     90
_cell_angle_gamma    120

_symmetry_Int_Tables_number  153
_chemical_formula_structural  AlGeMo
_chemical_formula_sum  Al3Ge3Mo3
_cell_volume  137.8850960675461
_cell_formula_units_Z  3
loop_
  _symmetry_equiv_pos_site_id
 _symmetry_equiv_pos_as_xyz
 1  'x, y, z'
loop_
 _atom_site_type_symbol
 _atom_site_label
 _atom_site_symmetry_multiplicity
 _atom_site_fract_x
 _atom_site_fract_y
 _atom_site_fract_z
 _atom_site_fract_occupancy
 Al  Al1  1  0.66656  0.83328  0.00000  1
 Al  Al2  1  0.16672  0.83328  0.66667  1
 Al  Al3  1  0.16672  0.33344  0.33333  1
 Ge  Ge1  1  0.00648  0.50324  0.00000  1
 Ge  Ge2  1  0.49676  0.50324  0.66667  1
 Ge  Ge3  1  0.49676  0.99352  0.33333  1
 Mo  Mo1  1  0.33909  0.16954  0.00000  1
 Mo  Mo2  1  0.83046  0.16954  0.66667  1
 Mo  Mo3  1  0.83046  0.66091  0.33333  1
