CIF file written using JARVIS-Tools package.
data_ThCo2Ni3
_symmetry_space_group_name_H-M  'Cmmm'
_cell_length_a       4.96506
_cell_length_b       4.96507
_cell_length_c       3.9689
_cell_angle_alpha    90
_cell_angle_beta     90
_cell_angle_gamma    121

_symmetry_Int_Tables_number  65
_chemical_formula_structural  ThCo2Ni3
_chemical_formula_sum  ThCo2Ni3
_cell_volume  83.86607800353767
_cell_formula_units_Z  1
loop_
  _symmetry_equiv_pos_site_id
 _symmetry_equiv_pos_as_xyz
 1  'x, y, z'
loop_
 _atom_site_type_symbol
 _atom_site_label
 _atom_site_symmetry_multiplicity
 _atom_site_fract_x
 _atom_site_fract_y
 _atom_site_fract_z
 _atom_site_fract_occupancy
 Co  Co1  1  -0.00000  0.50000  0.50000  1
 Co  Co2  1  0.50000  0.00000  0.50000  1
 Ni  Ni1  1  0.00000  0.00000  0.50000  1
 Ni  Ni2  1  0.17047  0.82953  0.00000  1
 Ni  Ni3  1  0.82953  0.17047  0.00000  1
 Th  Th1  1  0.50000  0.50000  0.00000  1
