CIF file written using JARVIS-Tools package.
data_Si2P4Ir
_symmetry_space_group_name_H-M  'C2/m'
_cell_length_a       4.95558
_cell_length_b       4.95558
_cell_length_c       5.61165
_cell_angle_alpha    71.1313
_cell_angle_beta     71.1313
_cell_angle_gamma    96.5724

_symmetry_Int_Tables_number  12
_chemical_formula_structural  Si2P4Ir
_chemical_formula_sum  Si2P4Ir
_cell_volume  119.64723071157698
_cell_formula_units_Z  1
loop_
  _symmetry_equiv_pos_site_id
 _symmetry_equiv_pos_as_xyz
 1  'x, y, z'
loop_
 _atom_site_type_symbol
 _atom_site_label
 _atom_site_symmetry_multiplicity
 _atom_site_fract_x
 _atom_site_fract_y
 _atom_site_fract_z
 _atom_site_fract_occupancy
 Ir  Ir1  1  0.00000  0.00000  0.00000  1
 P  P1  1  0.71174  0.16058  0.34331  1
 P  P2  1  0.83942  0.28826  0.65669  1
 P  P3  1  0.16058  0.71174  0.34331  1
 P  P4  1  0.28826  0.83942  0.65669  1
 Si  Si1  1  0.58754  0.58754  0.13772  1
 Si  Si2  1  0.41246  0.41246  0.86228  1
