CIF file written using JARVIS-Tools package.
data_InAgSe2
_symmetry_space_group_name_H-M  'R3m'
_cell_length_a       7.39618
_cell_length_b       7.39617
_cell_length_c       7.39617
_cell_angle_alpha    34.3486
_cell_angle_beta     34.3487
_cell_angle_gamma    34.3486

_symmetry_Int_Tables_number  160
_chemical_formula_structural  InAgSe2
_chemical_formula_sum  InAgSe2
_cell_volume  114.87954625162469
_cell_formula_units_Z  1
loop_
  _symmetry_equiv_pos_site_id
 _symmetry_equiv_pos_as_xyz
 1  'x, y, z'
loop_
 _atom_site_type_symbol
 _atom_site_label
 _atom_site_symmetry_multiplicity
 _atom_site_fract_x
 _atom_site_fract_y
 _atom_site_fract_z
 _atom_site_fract_occupancy
 Ag  Ag1  1  0.98893  0.98893  0.98893  1
 In  In1  1  0.50788  0.50788  0.50788  1
 Se  Se1  1  0.12274  0.12274  0.12274  1
 Se  Se2  1  0.63045  0.63045  0.63045  1
