CIF file written using JARVIS-Tools package.
data_MnNiN2
_symmetry_space_group_name_H-M  'P6_3/mmc'
_cell_length_a       2.62029
_cell_length_b       2.62027
_cell_length_c       11.9954
_cell_angle_alpha    90
_cell_angle_beta     90
_cell_angle_gamma    120

_symmetry_Int_Tables_number  194
_chemical_formula_structural  MnNiN2
_chemical_formula_sum  Mn2Ni2N4
_cell_volume  71.32428053706235
_cell_formula_units_Z  2
loop_
  _symmetry_equiv_pos_site_id
 _symmetry_equiv_pos_as_xyz
 1  'x, y, z'
loop_
 _atom_site_type_symbol
 _atom_site_label
 _atom_site_symmetry_multiplicity
 _atom_site_fract_x
 _atom_site_fract_y
 _atom_site_fract_z
 _atom_site_fract_occupancy
 Mn  Mn1  1  0.33345  0.66689  0.25000  1
 Mn  Mn2  1  0.66655  0.33311  0.75000  1
 N  N1  1  0.99989  0.99978  0.84799  1
 N  N2  1  0.00011  0.00022  0.15201  1
 N  N3  1  0.00011  0.00022  0.34799  1
 N  N4  1  0.99989  0.99978  0.65201  1
 Ni  Ni1  1  0.00000  0.00000  0.00000  1
 Ni  Ni2  1  0.00000  0.00000  0.50000  1
