CIF file written using JARVIS-Tools package.
data_Hf2Al3Cu
_symmetry_space_group_name_H-M  'R-3m'
_cell_length_a       5.14465
_cell_length_b       5.14466
_cell_length_c       5.14466
_cell_angle_alpha    61.7407
_cell_angle_beta     61.7407
_cell_angle_gamma    61.7407

_symmetry_Int_Tables_number  166
_chemical_formula_structural  Hf2Al3Cu
_chemical_formula_sum  Hf2Al3Cu
_cell_volume  100.03989406564807
_cell_formula_units_Z  1
loop_
  _symmetry_equiv_pos_site_id
 _symmetry_equiv_pos_as_xyz
 1  'x, y, z'
loop_
 _atom_site_type_symbol
 _atom_site_label
 _atom_site_symmetry_multiplicity
 _atom_site_fract_x
 _atom_site_fract_y
 _atom_site_fract_z
 _atom_site_fract_occupancy
 Al  Al1  1  0.00000  0.50000  0.50000  1
 Al  Al2  1  0.50000  0.50000  0.00000  1
 Al  Al3  1  0.50000  -0.00000  0.50000  1
 Cu  Cu1  1  0.50000  0.50000  0.50000  1
 Hf  Hf1  1  0.12444  0.12444  0.12444  1
 Hf  Hf2  1  0.87556  0.87556  0.87556  1
