CIF file written using JARVIS-Tools package.
data_BiO2
_symmetry_space_group_name_H-M  'P2_1/c'
_cell_length_a       6.75908
_cell_length_b       6.52813
_cell_length_c       13.2711
_cell_angle_alpha    60.5635
_cell_angle_beta     124.257
_cell_angle_gamma    89.9843

_symmetry_Int_Tables_number  14
_chemical_formula_structural  BiO2
_chemical_formula_sum  Bi8O6
_cell_volume  389.0701302792847
_cell_formula_units_Z  8
loop_
  _symmetry_equiv_pos_site_id
 _symmetry_equiv_pos_as_xyz
 1  'x, y, z'
loop_
 _atom_site_type_symbol
 _atom_site_label
 _atom_site_symmetry_multiplicity
 _atom_site_fract_x
 _atom_site_fract_y
 _atom_site_fract_z
 _atom_site_fract_occupancy
 Bi  Bi1  1  0.41591  0.97216  0.38747  1
 Bi  Bi2  1  0.58410  0.52786  0.11253  1
 Bi  Bi3  1  0.58385  0.24725  0.61250  1
 Bi  Bi4  1  0.41613  0.25278  0.88749  1
 Bi  Bi5  1  -0.03054  0.63834  0.46789  1
 Bi  Bi6  1  0.03053  -0.13835  0.03210  1
 Bi  Bi7  1  0.03036  0.07408  0.53213  1
 Bi  Bi8  1  -0.03035  0.42590  -0.03212  1
 O  O1  1  0.76756  0.04251  0.34320  1
 O  O2  1  0.23243  0.45749  0.15680  1
 O  O3  1  0.23227  0.22904  0.65681  1
 O  O4  1  0.75307  0.03985  0.56161  1
 O  O5  1  0.21736  0.67043  0.65687  1
 O  O6  1  -0.21733  0.82955  0.84313  1
 O  O7  1  -0.23226  0.27097  0.84318  1
 O  O8  1  0.27893  0.13140  0.47756  1
 O  O9  1  0.72082  0.58657  0.52243  1
 O  O10  1  0.75325  -0.16300  0.06162  1
 O  O11  1  0.78251  0.48404  0.34318  1
 O  O12  1  0.24698  0.46012  -0.06158  1
 O  O13  1  0.24671  0.66303  0.43835  1
 O  O14  1  0.27919  0.91342  -0.02242  1
 O  O15  1  0.21747  0.01593  0.15683  1
 O  O16  1  0.72106  0.36864  0.02243  1
