CIF file written using JARVIS-Tools package.
data_Fe2NiN2
_symmetry_space_group_name_H-M  'I4/mmm'
_cell_length_a       2.77649
_cell_length_b       2.77684
_cell_length_c       11.8293
_cell_angle_alpha    90
_cell_angle_beta     90
_cell_angle_gamma    90

_symmetry_Int_Tables_number  139
_chemical_formula_structural  Fe2NiN2
_chemical_formula_sum  Fe4Ni2N4
_cell_volume  91.2024085256848
_cell_formula_units_Z  2
loop_
  _symmetry_equiv_pos_site_id
 _symmetry_equiv_pos_as_xyz
 1  'x, y, z'
loop_
 _atom_site_type_symbol
 _atom_site_label
 _atom_site_symmetry_multiplicity
 _atom_site_fract_x
 _atom_site_fract_y
 _atom_site_fract_z
 _atom_site_fract_occupancy
 Fe  Fe1  1  0.75000  0.74995  0.07029  1
 Fe  Fe2  1  0.75000  0.74995  0.42971  1
 Fe  Fe3  1  0.25000  0.25005  0.92971  1
 Fe  Fe4  1  0.25000  0.25005  0.57029  1
 N  N1  1  0.75000  0.75000  0.59509  1
 N  N2  1  0.75000  0.75000  0.90491  1
 N  N3  1  0.25000  0.25000  0.40491  1
 N  N4  1  0.25000  0.25000  0.09509  1
 Ni  Ni1  1  0.75000  0.75012  0.75000  1
 Ni  Ni2  1  0.25000  0.24988  0.25000  1
