CIF file written using JARVIS-Tools package.
data_Er2Co3Cu
_symmetry_space_group_name_H-M  'R-3m'
_cell_length_a       5.01437
_cell_length_b       5.01437
_cell_length_c       5.05478
_cell_angle_alpha    90
_cell_angle_beta     60.2641
_cell_angle_gamma    120

_symmetry_Int_Tables_number  166
_chemical_formula_structural  Er2Co3Cu
_chemical_formula_sum  Er2Co3Cu
_cell_volume  90.22820783950012
_cell_formula_units_Z  1
loop_
  _symmetry_equiv_pos_site_id
 _symmetry_equiv_pos_as_xyz
 1  'x, y, z'
loop_
 _atom_site_type_symbol
 _atom_site_label
 _atom_site_symmetry_multiplicity
 _atom_site_fract_x
 _atom_site_fract_y
 _atom_site_fract_z
 _atom_site_fract_occupancy
 Co  Co1  1  0.25000  0.37500  0.37500  1
 Co  Co2  1  0.25000  0.87500  0.37500  1
 Co  Co3  1  0.75000  0.37500  0.37500  1
 Cu  Cu1  1  0.75000  0.37500  0.87500  1
 Er  Er1  1  0.50550  0.75275  0.74175  1
 Er  Er2  1  0.99450  0.99725  0.00825  1
