CIF file written using JARVIS-Tools package.
data_Er4ThCN4
_symmetry_space_group_name_H-M  'I4/mmm'
_cell_length_a       12.6079
_cell_length_b       12.6079
_cell_length_c       12.6079
_cell_angle_alpha    164.037
_cell_angle_beta     164.037
_cell_angle_gamma    22.649

_symmetry_Int_Tables_number  139
_chemical_formula_structural  Er4ThCN4
_chemical_formula_sum  Er4ThCN4
_cell_volume  151.54806566792533
_cell_formula_units_Z  1
loop_
  _symmetry_equiv_pos_site_id
 _symmetry_equiv_pos_as_xyz
 1  'x, y, z'
loop_
 _atom_site_type_symbol
 _atom_site_label
 _atom_site_symmetry_multiplicity
 _atom_site_fract_x
 _atom_site_fract_y
 _atom_site_fract_z
 _atom_site_fract_occupancy
 C  C1  1  0.00000  0.00000  0.00000  1
 Er  Er1  1  0.89313  0.89313  -0.00000  1
 Er  Er2  1  0.29797  0.29797  -0.00000  1
 Er  Er3  1  0.70203  0.70203  -0.00000  1
 Er  Er4  1  0.10687  0.10687  -0.00000  1
 N  N1  1  0.39580  0.39580  0.00000  1
 N  N2  1  0.79861  0.79861  -0.00000  1
 N  N3  1  0.20139  0.20139  -0.00000  1
 N  N4  1  0.60420  0.60420  -0.00000  1
 Th  Th1  1  0.50000  0.50000  -0.00000  1
