CIF file written using JARVIS-Tools package.
data_CdS
_symmetry_space_group_name_H-M  'Fm-3m'
_cell_length_a       3.8804
_cell_length_b       3.8803
_cell_length_c       5.4877
_cell_angle_alpha    90
_cell_angle_beta     90
_cell_angle_gamma    90

_symmetry_Int_Tables_number  225
_chemical_formula_structural  CdS
_chemical_formula_sum  Cd2S2
_cell_volume  82.62908743689304
_cell_formula_units_Z  2
loop_
  _symmetry_equiv_pos_site_id
 _symmetry_equiv_pos_as_xyz
 1  'x, y, z'
loop_
 _atom_site_type_symbol
 _atom_site_label
 _atom_site_symmetry_multiplicity
 _atom_site_fract_x
 _atom_site_fract_y
 _atom_site_fract_z
 _atom_site_fract_occupancy
 Cd  Cd1  1  0.25005  0.50000  0.50000  1
 Cd  Cd2  1  0.74995  0.00000  0.00000  1
 S  S1  1  0.24995  0.50000  0.00000  1
 S  S2  1  0.75005  0.00000  0.50000  1
