CIF file written using JARVIS-Tools package.
data_Sm10S19
_symmetry_space_group_name_H-M  'P4_2/n'
_cell_length_a       8.82673
_cell_length_b       8.82673
_cell_length_c       16.0318
_cell_angle_alpha    90
_cell_angle_beta     90
_cell_angle_gamma    90

_symmetry_Int_Tables_number  86
_chemical_formula_structural  Sm10S19
_chemical_formula_sum  Sm20S38
_cell_volume  1249.056528034178
_cell_formula_units_Z  2
loop_
  _symmetry_equiv_pos_site_id
 _symmetry_equiv_pos_as_xyz
 1  'x, y, z'
loop_
 _atom_site_type_symbol
 _atom_site_label
 _atom_site_symmetry_multiplicity
 _atom_site_fract_x
 _atom_site_fract_y
 _atom_site_fract_z
 _atom_site_fract_occupancy
 S  S1  1  0.70083  0.40207  0.82285  1
 S  S2  1  0.20083  0.90207  0.67715  1
 S  S3  1  0.59793  0.70083  0.17715  1
 S  S4  1  0.40207  0.29917  0.17715  1
 S  S5  1  0.79917  0.09793  0.67715  1
 S  S6  1  0.00000  0.50000  0.68475  1
 S  S7  1  0.29917  0.59793  0.82285  1
 S  S8  1  0.00000  0.50000  0.18475  1
 S  S9  1  0.77945  0.55603  0.49933  1
 S  S10  1  0.82389  0.63504  0.00003  1
 S  S11  1  0.50000  0.50000  0.00000  1
 S  S12  1  0.00000  0.00000  0.50000  1
 S  S13  1  0.55603  0.22055  0.50067  1
 S  S14  1  0.27945  0.05603  0.00067  1
 S  S15  1  0.72055  0.94397  0.00067  1
 S  S16  1  0.44397  0.77945  0.50067  1
 S  S17  1  0.94397  0.27945  0.99933  1
 S  S18  1  0.13504  0.67611  0.50003  1
 S  S19  1  0.22055  0.44397  0.49933  1
 S  S20  1  0.05603  0.72055  0.99933  1
 S  S21  1  0.63504  0.17611  0.99997  1
 S  S22  1  0.32389  0.13504  0.49997  1
 S  S23  1  0.67611  0.86496  0.49997  1
 S  S24  1  0.36496  0.82389  0.99997  1
 S  S25  1  0.86496  0.32389  0.50003  1
 S  S26  1  0.17611  0.36496  0.00003  1
 S  S27  1  0.09793  0.20083  0.32285  1
 S  S28  1  0.90207  0.79917  0.32285  1
 S  S29  1  0.50000  0.00000  0.31525  1
 S  S30  1  0.80306  0.10175  0.18801  1
 S  S31  1  0.60175  0.69694  0.68801  1
 S  S32  1  0.19694  0.89825  0.18801  1
 S  S33  1  0.69694  0.39825  0.31199  1
 S  S34  1  0.10175  0.19694  0.81199  1
 S  S35  1  0.89825  0.80306  0.81199  1
 S  S36  1  0.39825  0.30306  0.68801  1
 S  S37  1  0.30306  0.60175  0.31199  1
 S  S38  1  0.50000  0.00000  0.81525  1
 Sm  Sm1  1  0.70923  0.40173  0.12803  1
 Sm  Sm2  1  0.09827  0.20923  0.62803  1
 Sm  Sm3  1  0.90173  0.79077  0.62803  1
 Sm  Sm4  1  0.00000  0.50000  0.86465  1
 Sm  Sm5  1  0.50000  0.00000  0.13535  1
 Sm  Sm6  1  0.50000  0.00000  0.63535  1
 Sm  Sm7  1  0.20923  0.90173  0.37197  1
 Sm  Sm8  1  0.29077  0.59827  0.12803  1
 Sm  Sm9  1  0.59827  0.70923  0.87197  1
 Sm  Sm10  1  0.60461  0.69468  0.35361  1
 Sm  Sm11  1  0.79077  0.09827  0.37197  1
 Sm  Sm12  1  0.40173  0.29077  0.87197  1
 Sm  Sm13  1  0.19468  0.89539  0.85361  1
 Sm  Sm14  1  0.39539  0.30532  0.35361  1
 Sm  Sm15  1  0.10461  0.19468  0.14639  1
 Sm  Sm16  1  0.89539  0.80532  0.14639  1
 Sm  Sm17  1  0.30532  0.60461  0.64639  1
 Sm  Sm18  1  0.69468  0.39539  0.64639  1
 Sm  Sm19  1  0.00000  0.50000  0.36465  1
 Sm  Sm20  1  0.80532  0.10461  0.85361  1
