CIF file written using JARVIS-Tools package.
data_WS8Cl6
_symmetry_space_group_name_H-M  'P-1'
_cell_length_a       7.93429
_cell_length_b       7.95514
_cell_length_c       12.3444
_cell_angle_alpha    97.3175
_cell_angle_beta     101.297
_cell_angle_gamma    90.103

_symmetry_Int_Tables_number  2
_chemical_formula_structural  WS8Cl6
_chemical_formula_sum  W2S6Cl2
_cell_volume  757.5522269160666
_cell_formula_units_Z  2
loop_
  _symmetry_equiv_pos_site_id
 _symmetry_equiv_pos_as_xyz
 1  'x, y, z'
loop_
 _atom_site_type_symbol
 _atom_site_label
 _atom_site_symmetry_multiplicity
 _atom_site_fract_x
 _atom_site_fract_y
 _atom_site_fract_z
 _atom_site_fract_occupancy
 Cl  Cl1  1  0.19858  0.05288  0.10622  1
 Cl  Cl2  1  0.80142  0.94712  0.89378  1
 Cl  Cl3  1  0.75989  0.25740  0.08576  1
 Cl  Cl4  1  0.65774  0.18820  0.70161  1
 Cl  Cl5  1  0.34226  0.81180  0.29839  1
 Cl  Cl6  1  0.24011  0.74260  0.91424  1
 Cl  Cl7  1  0.56747  0.86419  0.11069  1
 Cl  Cl8  1  0.62750  0.50258  0.89482  1
 Cl  Cl9  1  0.37250  0.49742  0.10518  1
 Cl  Cl10  1  0.99262  0.31242  0.89981  1
 Cl  Cl11  1  0.00738  0.68758  0.10019  1
 Cl  Cl12  1  0.43253  0.13581  0.88931  1
 S  S1  1  0.12968  0.18443  0.38901  1
 S  S2  1  0.44471  0.75707  0.66637  1
 S  S3  1  0.55529  0.24293  0.33363  1
 S  S4  1  0.27150  0.91478  0.58406  1
 S  S5  1  0.08224  0.97427  0.67599  1
 S  S6  1  0.91776  0.02573  0.32401  1
 S  S7  1  0.87032  0.81557  0.61099  1
 S  S8  1  0.23795  0.40135  0.69748  1
 S  S9  1  0.87729  0.61660  0.70557  1
 S  S10  1  0.12271  0.38340  0.29443  1
 S  S11  1  0.98006  0.40988  0.62538  1
 S  S12  1  0.01994  0.59012  0.37462  1
 S  S13  1  0.76205  0.59865  0.30252  1
 S  S14  1  0.62056  0.49163  0.40179  1
 S  S15  1  0.37944  0.50837  0.59821  1
 S  S16  1  0.72850  0.08522  0.41594  1
 W  W1  1  0.28750  0.77585  0.10560  1
 W  W2  1  0.71250  0.22415  0.89440  1
