CIF file written using JARVIS-Tools package.
data_NbW6Se14
_symmetry_space_group_name_H-M  'P2_1/m'
_cell_length_a       5.81284
_cell_length_b       13.086
_cell_length_c       12.103
_cell_angle_alpha    90
_cell_angle_beta     103.894
_cell_angle_gamma    90

_symmetry_Int_Tables_number  11
_chemical_formula_structural  NbW6Se14
_chemical_formula_sum  Nb2W2Se28
_cell_volume  893.7017196761917
_cell_formula_units_Z  2
loop_
  _symmetry_equiv_pos_site_id
 _symmetry_equiv_pos_as_xyz
 1  'x, y, z'
loop_
 _atom_site_type_symbol
 _atom_site_label
 _atom_site_symmetry_multiplicity
 _atom_site_fract_x
 _atom_site_fract_y
 _atom_site_fract_z
 _atom_site_fract_occupancy
 Nb  Nb1  1  0.33555  0.25000  0.99989  1
 Nb  Nb2  1  0.09302  0.75000  0.85725  1
 Se  Se1  1  0.62084  0.62255  0.57119  1
 Se  Se2  1  0.52173  0.12252  0.71399  1
 Se  Se3  1  0.18937  0.87881  0.71070  1
 Se  Se4  1  0.09255  0.37893  0.85345  1
 Se  Se5  1  0.09255  0.12107  0.85345  1
 Se  Se6  1  0.18937  0.62119  0.71070  1
 Se  Se7  1  0.04900  0.87785  0.42725  1
 Se  Se8  1  0.94976  0.37784  0.57015  1
 Se  Se9  1  0.94976  0.12216  0.57015  1
 Se  Se10  1  0.04900  0.62215  0.42725  1
 Se  Se11  1  0.90684  0.87748  0.14315  1
 Se  Se12  1  0.52173  0.37748  0.71399  1
 Se  Se13  1  0.80773  0.12255  0.28595  1
 Se  Se14  1  0.90684  0.62252  0.14315  1
 Se  Se15  1  0.75228  0.87830  0.85718  1
 Se  Se16  1  0.67629  0.37830  0.99996  1
 Se  Se17  1  0.67629  0.12170  0.99996  1
 Se  Se18  1  0.47881  0.87784  0.28699  1
 Se  Se19  1  0.37958  0.37785  0.42989  1
 Se  Se20  1  0.37958  0.12215  0.42989  1
 Se  Se21  1  0.47881  0.62216  0.28699  1
 Se  Se22  1  0.62084  0.87745  0.57119  1
 Se  Se23  1  0.75228  0.62170  0.85718  1
 Se  Se24  1  0.33602  0.62107  0.00369  1
 Se  Se25  1  0.80773  0.37745  0.28595  1
 Se  Se26  1  0.23920  0.37881  0.14645  1
 Se  Se27  1  0.33602  0.87893  0.00369  1
 Se  Se28  1  0.23920  0.12119  0.14645  1
 W  W1  1  0.18744  0.25000  0.71202  1
 W  W2  1  0.95321  0.75000  0.56916  1
 W  W3  1  0.24113  0.75000  0.14512  1
 W  W4  1  0.38278  0.75000  0.42896  1
 W  W5  1  0.61760  0.25000  0.57181  1
 W  W6  1  0.52016  0.75000  0.71257  1
 W  W7  1  0.76381  0.25000  0.85537  1
 W  W8  1  0.66476  0.75000  0.00178  1
 W  W9  1  0.90841  0.25000  0.14457  1
 W  W10  1  0.81097  0.75000  0.28533  1
 W  W11  1  0.04579  0.25000  0.42818  1
 W  W12  1  0.47536  0.25000  0.28799  1
