CIF file written using JARVIS-Tools package.
data_Sb2Au3F18
_symmetry_space_group_name_H-M  'P2_1/c'
_cell_length_a       8.46053
_cell_length_b       9.11765
_cell_length_c       9.6962
_cell_angle_alpha    115.119
_cell_angle_beta     90
_cell_angle_gamma    90

_symmetry_Int_Tables_number  14
_chemical_formula_structural  Sb2Au3F18
_chemical_formula_sum  Sb4Au6F36
_cell_volume  677.2298253168088
_cell_formula_units_Z  2
loop_
  _symmetry_equiv_pos_site_id
 _symmetry_equiv_pos_as_xyz
 1  'x, y, z'
loop_
 _atom_site_type_symbol
 _atom_site_label
 _atom_site_symmetry_multiplicity
 _atom_site_fract_x
 _atom_site_fract_y
 _atom_site_fract_z
 _atom_site_fract_occupancy
 Au  Au1  1  0.66846  0.79781  0.13057  1
 Au  Au2  1  0.16846  0.70219  0.36943  1
 Au  Au3  1  0.00000  0.50000  -0.00000  1
 Au  Au4  1  0.83154  0.29781  0.63057  1
 Au  Au5  1  0.33154  0.20219  0.86943  1
 Au  Au6  1  0.50000  0.00000  0.50000  1
 F  F1  1  0.13113  0.91787  0.24474  1
 F  F2  1  0.10102  0.36564  0.33378  1
 F  F3  1  0.60102  0.13436  0.16622  1
 F  F4  1  0.79151  0.90898  0.31065  1
 F  F5  1  0.29151  0.59102  0.18935  1
 F  F6  1  0.20849  0.09102  0.68935  1
 F  F7  1  0.70849  0.40898  0.81065  1
 F  F8  1  0.47886  0.89596  0.25659  1
 F  F9  1  0.97886  0.60404  0.24341  1
 F  F10  1  0.86302  0.70194  0.01014  1
 F  F11  1  0.02114  0.39596  0.75659  1
 F  F12  1  0.55871  0.59455  0.65310  1
 F  F13  1  0.36302  0.79806  0.48986  1
 F  F14  1  0.13698  0.29806  0.98986  1
 F  F15  1  0.63698  0.20194  0.51014  1
 F  F16  1  0.89898  0.63436  0.66622  1
 F  F17  1  0.39898  0.86564  0.83378  1
 F  F18  1  0.52114  0.10404  0.74341  1
 F  F19  1  0.05871  0.90545  0.84690  1
 F  F20  1  0.52771  0.66490  0.95304  1
 F  F21  1  0.28359  0.18176  0.42899  1
 F  F22  1  0.47229  0.33510  0.04696  1
 F  F23  1  0.97229  0.16490  0.45304  1
 F  F24  1  0.22914  0.60564  0.61724  1
 F  F25  1  0.72914  0.89436  0.88276  1
 F  F26  1  0.77086  0.39436  0.38276  1
 F  F27  1  0.44129  0.40545  0.34690  1
 F  F28  1  0.86887  0.08213  0.75526  1
 F  F29  1  0.36887  0.41787  0.74474  1
 F  F30  1  0.02771  0.83510  0.54696  1
 F  F31  1  0.21641  0.68176  0.92899  1
 F  F32  1  0.71641  0.81824  0.57101  1
 F  F33  1  0.27086  0.10564  0.11724  1
 F  F34  1  0.78359  0.31824  0.07101  1
 F  F35  1  0.94129  0.09455  0.15310  1
 F  F36  1  0.63113  0.58213  0.25526  1
 Sb  Sb1  1  0.37535  0.63998  0.77644  1
 Sb  Sb2  1  0.87535  0.86002  0.72356  1
 Sb  Sb3  1  0.62465  0.36002  0.22356  1
 Sb  Sb4  1  0.12465  0.13998  0.27644  1
