CIF file written using JARVIS-Tools package.
data_Tb2O3
_symmetry_space_group_name_H-M  'Ia-3'
_cell_length_a       9.27854
_cell_length_b       9.27855
_cell_length_c       9.27854
_cell_angle_alpha    109.471
_cell_angle_beta     109.471
_cell_angle_gamma    109.471

_symmetry_Int_Tables_number  206
_chemical_formula_structural  Tb2O3
_chemical_formula_sum  Tb6O24
_cell_volume  614.9181161167756
_cell_formula_units_Z  8
loop_
  _symmetry_equiv_pos_site_id
 _symmetry_equiv_pos_as_xyz
 1  'x, y, z'
loop_
 _atom_site_type_symbol
 _atom_site_label
 _atom_site_symmetry_multiplicity
 _atom_site_fract_x
 _atom_site_fract_y
 _atom_site_fract_z
 _atom_site_fract_occupancy
 O  O1  1  0.03060  0.48804  0.76005  1
 O  O2  1  0.98803  0.95744  0.72797  1
 O  O3  1  0.51197  0.23994  0.96940  1
 O  O4  1  0.54256  0.53060  0.77053  1
 O  O5  1  0.53060  0.77053  0.54256  1
 O  O6  1  0.77203  0.72947  0.26006  1
 O  O7  1  0.95744  0.72797  0.98803  1
 O  O8  1  0.96940  0.51197  0.23994  1
 O  O9  1  0.22799  0.27055  0.73995  1
 O  O10  1  0.48804  0.76005  0.03060  1
 O  O11  1  0.23994  0.96940  0.51197  1
 O  O12  1  0.77053  0.54256  0.53060  1
 O  O13  1  0.04256  0.27201  0.01196  1
 O  O14  1  0.76005  0.03060  0.48804  1
 O  O15  1  0.73995  0.22799  0.27055  1
 O  O16  1  0.46940  0.22945  0.45744  1
 O  O17  1  0.45744  0.46940  0.22945  1
 O  O18  1  0.26006  0.77203  0.72947  1
 O  O19  1  0.72947  0.26006  0.77203  1
 O  O20  1  0.27201  0.01196  0.04256  1
 O  O21  1  0.01196  0.04256  0.27201  1
 O  O22  1  0.22945  0.45744  0.46940  1
 O  O23  1  0.27055  0.73995  0.22799  1
 O  O24  1  0.72797  0.98803  0.95744  1
 Tb  Tb1  1  0.75000  0.78201  0.03201  1
 Tb  Tb2  1  0.46799  0.25000  0.71799  1
 Tb  Tb3  1  0.71799  0.46799  0.25000  1
 Tb  Tb4  1  0.03201  0.75000  0.78201  1
 Tb  Tb5  1  0.78201  0.03201  0.75000  1
 Tb  Tb6  1  0.75000  0.28202  0.53202  1
 Tb  Tb7  1  0.25000  0.71799  0.46799  1
 Tb  Tb8  1  0.53202  0.75000  0.28202  1
 Tb  Tb9  1  0.28202  0.53202  0.75000  1
 Tb  Tb10  1  0.25000  0.21798  0.96798  1
 Tb  Tb11  1  0.00002  0.50000  -0.00000  1
 Tb  Tb12  1  0.50000  0.00000  0.00002  1
 Tb  Tb13  1  0.96798  0.25000  0.21798  1
 Tb  Tb14  1  -0.00000  0.00002  0.50000  1
 Tb  Tb15  1  0.21798  0.96798  0.25000  1
 Tb  Tb16  1  0.49998  0.49998  0.49998  1
