CIF file written using JARVIS-Tools package.
data_AuF5
_symmetry_space_group_name_H-M  'Pnma'
_cell_length_a       4.80263
_cell_length_b       9.22979
_cell_length_c       14.9534
_cell_angle_alpha    90
_cell_angle_beta     90
_cell_angle_gamma    90

_symmetry_Int_Tables_number  62
_chemical_formula_structural  AuF5
_chemical_formula_sum  Au8F40
_cell_volume  662.8411645777168
_cell_formula_units_Z  8
loop_
  _symmetry_equiv_pos_site_id
 _symmetry_equiv_pos_as_xyz
 1  'x, y, z'
loop_
 _atom_site_type_symbol
 _atom_site_label
 _atom_site_symmetry_multiplicity
 _atom_site_fract_x
 _atom_site_fract_y
 _atom_site_fract_z
 _atom_site_fract_occupancy
 Au  Au1  1  0.07336  0.13075  0.35665  1
 Au  Au2  1  0.07336  0.13075  0.14335  1
 Au  Au3  1  0.57336  0.36925  0.85665  1
 Au  Au4  1  0.42664  0.63075  0.35665  1
 Au  Au5  1  0.57336  0.36925  0.64335  1
 Au  Au6  1  0.92664  0.86925  0.85665  1
 Au  Au7  1  0.42664  0.63075  0.14335  1
 Au  Au8  1  0.92664  0.86925  0.64335  1
 F  F1  1  0.74784  0.97599  0.94873  1
 F  F2  1  0.24784  0.52401  0.05127  1
 F  F3  1  0.75216  0.47599  0.55127  1
 F  F4  1  0.25216  0.02401  0.44873  1
 F  F5  1  0.38379  0.26355  0.35168  1
 F  F6  1  0.88379  0.23645  0.64832  1
 F  F7  1  0.25764  0.51996  0.25000  1
 F  F8  1  0.11621  0.76355  0.14832  1
 F  F9  1  0.38379  0.26355  0.14832  1
 F  F10  1  0.11621  0.76355  0.35168  1
 F  F11  1  0.88379  0.23645  0.85168  1
 F  F12  1  0.74784  0.97599  0.55127  1
 F  F13  1  0.89792  0.23858  0.25000  1
 F  F14  1  0.39792  0.26142  0.75000  1
 F  F15  1  0.60208  0.73858  0.25000  1
 F  F16  1  0.10208  0.76142  0.75000  1
 F  F17  1  0.24236  0.01996  0.25000  1
 F  F18  1  0.61621  0.73645  0.64832  1
 F  F19  1  0.24784  0.52401  0.44873  1
 F  F20  1  0.09477  0.75607  0.94770  1
 F  F21  1  0.74236  0.48004  0.75000  1
 F  F22  1  0.26052  0.50084  0.64477  1
 F  F23  1  0.73948  0.49916  0.14477  1
 F  F24  1  0.23948  0.00084  0.85523  1
 F  F25  1  0.23948  0.00084  0.64477  1
 F  F26  1  0.73948  0.49916  0.35523  1
 F  F27  1  0.26052  0.50084  0.85523  1
 F  F28  1  0.76052  0.99916  0.14477  1
 F  F29  1  0.90523  0.24393  0.44770  1
 F  F30  1  0.59477  0.74393  0.05230  1
 F  F31  1  0.76052  0.99916  0.35523  1
 F  F32  1  0.09477  0.75607  0.55230  1
 F  F33  1  0.59477  0.74393  0.44770  1
 F  F34  1  0.40523  0.25607  0.94770  1
 F  F35  1  0.90523  0.24393  0.05230  1
 F  F36  1  0.40523  0.25607  0.55230  1
 F  F37  1  0.61621  0.73645  0.85168  1
 F  F38  1  0.25216  0.02401  0.05127  1
 F  F39  1  0.75216  0.47599  0.94873  1
 F  F40  1  0.75764  0.98004  0.75000  1
