CIF file written using JARVIS-Tools package.
data_NbW3Se8
_symmetry_space_group_name_H-M  'P-6m2'
_cell_length_a       3.36671
_cell_length_b       26.2889
_cell_length_c       3.36671
_cell_angle_alpha    89.9999
_cell_angle_beta     120
_cell_angle_gamma    90

_symmetry_Int_Tables_number  187
_chemical_formula_structural  NbW3Se8
_chemical_formula_sum  NbW3Se8
_cell_volume  258.0560770760166
_cell_formula_units_Z  1
loop_
  _symmetry_equiv_pos_site_id
 _symmetry_equiv_pos_as_xyz
 1  'x, y, z'
loop_
 _atom_site_type_symbol
 _atom_site_label
 _atom_site_symmetry_multiplicity
 _atom_site_fract_x
 _atom_site_fract_y
 _atom_site_fract_z
 _atom_site_fract_occupancy
 Nb  Nb1  1  0.66660  0.62501  0.33349  1
 Se  Se1  1  0.33335  0.18844  0.66671  1
 Se  Se2  1  0.66669  0.43821  0.33323  1
 Se  Se3  1  0.66670  0.31134  0.33324  1
 Se  Se4  1  0.33335  0.06156  0.66671  1
 Se  Se5  1  0.33326  0.69074  0.66682  1
 Se  Se6  1  0.66670  0.93866  0.33325  1
 Se  Se7  1  0.66669  0.81179  0.33323  1
 Se  Se8  1  0.33326  0.55927  0.66682  1
 W  W1  1  0.33336  0.37477  0.66657  1
 W  W2  1  0.66668  0.12500  0.33337  1
 W  W3  1  0.33336  0.87523  0.66658  1
