CIF file written using JARVIS-Tools package.
data_B5H11
_symmetry_space_group_name_H-M  'P2_1/c'
_cell_length_a       6.72017
_cell_length_b       8.23501
_cell_length_c       9.91896
_cell_angle_alpha    90
_cell_angle_beta     94.2188
_cell_angle_gamma    90

_symmetry_Int_Tables_number  14
_chemical_formula_structural  B5H11
_chemical_formula_sum  B20H44
_cell_volume  547.4340143425718
_cell_formula_units_Z  4
loop_
  _symmetry_equiv_pos_site_id
 _symmetry_equiv_pos_as_xyz
 1  'x, y, z'
loop_
 _atom_site_type_symbol
 _atom_site_label
 _atom_site_symmetry_multiplicity
 _atom_site_fract_x
 _atom_site_fract_y
 _atom_site_fract_z
 _atom_site_fract_occupancy
 B  B1  1  0.29643  0.10743  0.31464  1
 B  B2  1  0.02668  0.04864  0.32002  1
 B  B3  1  0.62824  0.39109  0.67299  1
 B  B4  1  0.87176  0.89109  0.82701  1
 B  B5  1  0.37176  0.60891  0.32701  1
 B  B6  1  0.20357  0.60743  0.18536  1
 B  B7  1  0.79643  0.39257  0.81464  1
 B  B8  1  0.70357  0.89257  0.68536  1
 B  B9  1  0.97332  0.95136  0.67998  1
 B  B10  1  0.47332  0.54864  0.17998  1
 B  B11  1  0.12824  0.10891  0.17299  1
 B  B12  1  0.52668  0.45136  0.82002  1
 B  B13  1  0.87686  0.22031  0.38257  1
 B  B14  1  0.12314  0.77969  0.61743  1
 B  B15  1  0.62314  0.72031  0.11743  1
 B  B16  1  0.37934  0.33528  0.70488  1
 B  B17  1  0.37686  0.27969  0.88257  1
 B  B18  1  0.62066  0.66472  0.29512  1
 B  B19  1  0.87934  0.16472  0.20488  1
 B  B20  1  0.12066  0.83528  0.79512  1
 H  H1  1  0.27455  0.82340  0.57246  1
 H  H2  1  0.49106  0.73545  0.37137  1
 H  H3  1  0.00894  0.23545  0.12863  1
 H  H4  1  0.78923  0.30442  0.69646  1
 H  H5  1  0.71077  0.80442  0.80354  1
 H  H6  1  0.85720  0.98357  0.91777  1
 H  H7  1  0.21077  0.69558  0.30354  1
 H  H8  1  0.28923  0.19558  0.19646  1
 H  H9  1  0.77455  0.67660  0.07246  1
 H  H10  1  0.14280  0.01643  0.08223  1
 H  H11  1  0.41931  0.00375  0.30387  1
 H  H12  1  0.08069  0.50375  0.19613  1
 H  H13  1  0.58069  -0.00375  0.69613  1
 H  H14  1  0.91931  0.49625  0.80387  1
 H  H15  1  0.33475  0.21469  0.39384  1
 H  H16  1  0.16525  0.71469  0.10616  1
 H  H17  1  0.66525  0.78531  0.60616  1
 H  H18  1  0.83475  0.28531  0.89384  1
 H  H19  1  0.99106  0.76455  0.87137  1
 H  H20  1  0.72545  0.17660  0.42754  1
 H  H21  1  0.50894  0.26455  0.62863  1
 H  H22  1  0.04200  0.66109  0.56749  1
 H  H23  1  0.67145  0.79797  0.24027  1
 H  H24  1  0.22545  0.32340  0.92754  1
 H  H25  1  0.54200  0.83891  0.06749  1
 H  H26  1  0.95800  0.33891  0.43251  1
 H  H27  1  0.24385  0.38903  0.63445  1
 H  H28  1  0.25615  0.88903  0.86555  1
 H  H29  1  0.75615  0.61097  0.36555  1
 H  H30  1  0.74385  0.11097  0.13445  1
 H  H31  1  0.47865  0.58888  0.83837  1
 H  H32  1  0.02135  0.08888  0.66163  1
 H  H33  1  0.52135  0.41112  0.16163  1
 H  H34  1  0.97865  0.91112  0.33837  1
 H  H35  1  0.45800  0.16109  0.93251  1
 H  H36  1  0.55245  0.36909  0.92740  1
 H  H37  1  0.35720  0.51643  0.41777  1
 H  H38  1  0.94755  0.86909  0.57260  1
 H  H39  1  0.44755  0.63091  0.07260  1
 H  H40  1  0.05245  0.13091  0.42740  1
 H  H41  1  0.32855  0.20203  0.75973  1
 H  H42  1  0.17145  0.70203  0.74027  1
 H  H43  1  0.82855  0.29797  0.25973  1
 H  H44  1  0.64280  0.48357  0.58223  1
