CIF file written using JARVIS-Tools package.
data_TaSe2
_symmetry_space_group_name_H-M  'P-1'
_cell_length_a       8.82005
_cell_length_b       9.50698
_cell_length_c       11.2689
_cell_angle_alpha    74.5036
_cell_angle_beta     77.033
_cell_angle_gamma    87.2862

_symmetry_Int_Tables_number  2
_chemical_formula_structural  TaSe2
_chemical_formula_sum  Ta3Se26
_cell_volume  887.2652950805818
_cell_formula_units_Z  13
loop_
  _symmetry_equiv_pos_site_id
 _symmetry_equiv_pos_as_xyz
 1  'x, y, z'
loop_
 _atom_site_type_symbol
 _atom_site_label
 _atom_site_symmetry_multiplicity
 _atom_site_fract_x
 _atom_site_fract_y
 _atom_site_fract_z
 _atom_site_fract_occupancy
 Se  Se1  1  0.40347  0.10380  0.25097  1
 Se  Se2  1  0.91734  0.80576  0.52323  1
 Se  Se3  1  0.14052  0.49839  0.60246  1
 Se  Se4  1  0.82252  0.57815  0.84082  1
 Se  Se5  1  0.85948  0.50161  0.39754  1
 Se  Se6  1  0.62429  0.79450  0.30946  1
 Se  Se7  1  0.22375  0.64462  0.85645  1
 Se  Se8  1  0.22743  0.75328  0.29278  1
 Se  Se9  1  0.08266  0.19424  0.47677  1
 Se  Se10  1  0.77257  0.24672  0.70722  1
 Se  Se11  1  0.55439  0.57354  0.62840  1
 Se  Se12  1  0.00690  0.05804  0.21783  1
 Se  Se13  1  -0.00690  0.94196  0.78217  1
 Se  Se14  1  0.30426  0.98428  0.99302  1
 Se  Se15  1  0.69574  0.01572  0.00698  1
 Se  Se16  1  0.07971  0.28192  0.91917  1
 Se  Se17  1  0.92029  0.71808  0.08083  1
 Se  Se18  1  0.37571  0.20550  0.69054  1
 Se  Se19  1  0.77625  0.35538  0.14355  1
 Se  Se20  1  0.44561  0.42646  0.37160  1
 Se  Se21  1  0.17748  0.42185  0.15918  1
 Se  Se22  1  0.67618  0.12182  0.44350  1
 Se  Se23  1  0.32382  0.87818  0.55650  1
 Se  Se24  1  0.51681  0.65736  0.06559  1
 Se  Se25  1  0.48319  0.34264  0.93441  1
 Se  Se26  1  0.59653  0.89620  0.74903  1
 Ta  Ta1  1  0.64048  0.84926  0.51330  1
 Ta  Ta2  1  0.51210  0.63849  0.84818  1
 Ta  Ta3  1  0.48790  0.36151  0.15182  1
 Ta  Ta4  1  0.84922  0.51316  0.63857  1
 Ta  Ta5  1  0.15078  0.48684  0.36143  1
 Ta  Ta6  1  0.28205  0.93004  0.78642  1
 Ta  Ta7  1  0.93071  0.78666  0.28312  1
 Ta  Ta8  1  0.71795  0.06996  0.21358  1
 Ta  Ta9  1  0.78631  0.28272  0.93038  1
 Ta  Ta10  1  0.21369  0.71728  0.06962  1
 Ta  Ta11  1  0.06929  0.21334  0.71688  1
 Ta  Ta12  1  0.35952  0.15074  0.48670  1
 Ta  Ta13  1  0.00000  0.00000  0.00000  1
