CIF file written using JARVIS-Tools package.
data_WF6
_symmetry_space_group_name_H-M  'Pnma'
_cell_length_a       4.97736
_cell_length_b       8.58438
_cell_length_c       9.3942
_cell_angle_alpha    90
_cell_angle_beta     90
_cell_angle_gamma    90

_symmetry_Int_Tables_number  62
_chemical_formula_structural  WF6
_chemical_formula_sum  W4F24
_cell_volume  401.3918134858184
_cell_formula_units_Z  4
loop_
  _symmetry_equiv_pos_site_id
 _symmetry_equiv_pos_as_xyz
 1  'x, y, z'
loop_
 _atom_site_type_symbol
 _atom_site_label
 _atom_site_symmetry_multiplicity
 _atom_site_fract_x
 _atom_site_fract_y
 _atom_site_fract_z
 _atom_site_fract_occupancy
 F  F1  1  0.24129  0.40341  0.98631  1
 F  F2  1  0.07049  0.59629  0.24121  1
 F  F3  1  0.42951  0.90371  0.74121  1
 F  F4  1  0.92951  0.09629  0.75879  1
 F  F5  1  0.21835  0.75000  0.01051  1
 F  F6  1  0.71835  0.25000  0.48949  1
 F  F7  1  0.78165  0.25000  0.98949  1
 F  F8  1  0.28165  0.75000  0.51051  1
 F  F9  1  0.61118  0.75000  0.24413  1
 F  F10  1  0.11118  0.25000  0.25587  1
 F  F11  1  0.38882  0.25000  0.75587  1
 F  F12  1  0.88882  0.75000  0.74413  1
 F  F13  1  0.57049  0.40371  0.25879  1
 F  F14  1  0.25871  0.09659  0.48631  1
 F  F15  1  0.74129  0.59659  0.51369  1
 F  F16  1  0.24129  0.09659  0.98631  1
 F  F17  1  0.74129  0.90341  0.51369  1
 F  F18  1  0.75871  0.59659  0.01369  1
 F  F19  1  0.25871  0.40341  0.48631  1
 F  F20  1  0.07049  0.90371  0.24121  1
 F  F21  1  0.57049  0.09629  0.25879  1
 F  F22  1  0.92951  0.40371  0.75879  1
 F  F23  1  0.42951  0.59629  0.74121  1
 F  F24  1  0.75871  0.90341  0.01369  1
 W  W1  1  0.41544  0.25000  0.37249  1
 W  W2  1  0.58456  0.75000  0.62751  1
 W  W3  1  0.08456  0.25000  0.87249  1
 W  W4  1  0.91544  0.75000  0.12751  1
