CIF file written using JARVIS-Tools package.
data_OsC4Cl2O4
_symmetry_space_group_name_H-M  'P4_2/mnm'
_cell_length_a       5.78597
_cell_length_b       5.78597
_cell_length_c       11.5023
_cell_angle_alpha    90
_cell_angle_beta     90
_cell_angle_gamma    90

_symmetry_Int_Tables_number  136
_chemical_formula_structural  OsC4Cl2O4
_chemical_formula_sum  Os2C8Cl4O8
_cell_volume  385.0660398071432
_cell_formula_units_Z  2
loop_
  _symmetry_equiv_pos_site_id
 _symmetry_equiv_pos_as_xyz
 1  'x, y, z'
loop_
 _atom_site_type_symbol
 _atom_site_label
 _atom_site_symmetry_multiplicity
 _atom_site_fract_x
 _atom_site_fract_y
 _atom_site_fract_z
 _atom_site_fract_occupancy
 C  C1  1  0.66926  0.66926  0.37699  1
 C  C2  1  0.33074  0.33074  0.37699  1
 C  C3  1  0.33074  0.33074  0.62301  1
 C  C4  1  0.16926  0.83074  0.12301  1
 C  C5  1  0.83074  0.16926  0.12301  1
 C  C6  1  0.83074  0.16926  0.87699  1
 C  C7  1  0.66926  0.66926  0.62301  1
 C  C8  1  0.16926  0.83074  0.87699  1
 Cl  Cl1  1  0.20144  0.79856  0.50000  1
 Cl  Cl2  1  0.79856  0.20144  0.50000  1
 Cl  Cl3  1  0.29856  0.29856  0.00000  1
 Cl  Cl4  1  0.70144  0.70144  0.00000  1
 O  O1  1  0.23822  0.23822  0.69776  1
 O  O2  1  0.73822  0.26178  0.80224  1
 O  O3  1  0.73822  0.26178  0.19776  1
 O  O4  1  0.76178  0.76178  0.30224  1
 O  O5  1  0.26178  0.73822  0.80224  1
 O  O6  1  0.76178  0.76178  0.69776  1
 O  O7  1  0.23822  0.23822  0.30224  1
 O  O8  1  0.26178  0.73822  0.19776  1
 Os  Os1  1  0.50000  0.50000  0.50000  1
 Os  Os2  1  0.00000  0.00000  0.00000  1
