CIF file written using JARVIS-Tools package.
data_Nb2WSe6
_symmetry_space_group_name_H-M  'C2/c'
_cell_length_a       5.9535
_cell_length_b       5.95345
_cell_length_c       13.4605
_cell_angle_alpha    77.2074
_cell_angle_beta     77.1406
_cell_angle_gamma    60.0005

_symmetry_Int_Tables_number  15
_chemical_formula_structural  Nb2WSe6
_chemical_formula_sum  Nb4W2Se2
_cell_volume  399.37085645943046
_cell_formula_units_Z  2
loop_
  _symmetry_equiv_pos_site_id
 _symmetry_equiv_pos_as_xyz
 1  'x, y, z'
loop_
 _atom_site_type_symbol
 _atom_site_label
 _atom_site_symmetry_multiplicity
 _atom_site_fract_x
 _atom_site_fract_y
 _atom_site_fract_z
 _atom_site_fract_occupancy
 Nb  Nb1  1  0.25013  0.91696  0.25001  1
 Nb  Nb2  1  0.41654  0.74970  0.74999  1
 Nb  Nb3  1  0.91674  0.58367  0.24999  1
 Nb  Nb4  1  0.74992  0.08300  0.75001  1
 Se  Se1  1  0.71362  0.37356  0.87900  1
 Se  Se2  1  0.86614  0.20740  0.37908  1
 Se  Se3  1  0.95305  0.29311  0.12100  1
 Se  Se4  1  0.80053  0.45926  0.62092  1
 Se  Se5  1  0.36593  0.04733  0.87908  1
 Se  Se6  1  0.53996  0.88119  0.37909  1
 Se  Se7  1  0.12671  0.78547  0.62091  1
 Se  Se8  1  0.30073  0.61934  0.12092  1
 Se  Se9  1  0.03976  0.69971  0.87909  1
 Se  Se10  1  0.21382  0.53357  0.37901  1
 Se  Se11  1  0.62691  0.96695  0.12091  1
 Se  Se12  1  0.45285  0.13310  0.62099  1
 W  W1  1  0.58343  0.25021  0.25000  1
 W  W2  1  0.08324  0.41645  0.75000  1
