CIF file written using JARVIS-Tools package.
data_DyB4Ir2Rh2
_symmetry_space_group_name_H-M  'P4_2mc'
_cell_length_a       5.36962
_cell_length_b       5.36962
_cell_length_c       7.47685
_cell_angle_alpha    90
_cell_angle_beta     90
_cell_angle_gamma    90

_symmetry_Int_Tables_number  105
_chemical_formula_structural  DyB4Ir2Rh2
_chemical_formula_sum  Dy2B8Ir4Rh4
_cell_volume  215.57884713517302
_cell_formula_units_Z  2
loop_
  _symmetry_equiv_pos_site_id
 _symmetry_equiv_pos_as_xyz
 1  'x, y, z'
loop_
 _atom_site_type_symbol
 _atom_site_label
 _atom_site_symmetry_multiplicity
 _atom_site_fract_x
 _atom_site_fract_y
 _atom_site_fract_z
 _atom_site_fract_occupancy
 B  B1  1  0.32837  0.50000  0.40198  1
 B  B2  1  0.50000  0.67163  0.90198  1
 B  B3  1  0.00000  0.83166  0.10063  1
 B  B4  1  0.83166  0.00000  0.60063  1
 B  B5  1  0.16834  0.00000  0.60063  1
 B  B6  1  0.00000  0.16834  0.10063  1
 B  B7  1  0.50000  0.32837  0.90198  1
 B  B8  1  0.67163  0.50000  0.40198  1
 Dy  Dy1  1  0.50000  0.00000  0.24710  1
 Dy  Dy2  1  0.00000  0.50000  0.74710  1
 Ir  Ir1  1  0.75204  0.50000  0.10410  1
 Ir  Ir2  1  0.24796  0.50000  0.10410  1
 Ir  Ir3  1  0.50000  0.75204  0.60410  1
 Ir  Ir4  1  0.50000  0.24796  0.60410  1
 Rh  Rh1  1  0.00000  0.74950  0.39474  1
 Rh  Rh2  1  0.74950  0.00000  0.89474  1
 Rh  Rh3  1  0.25050  0.00000  0.89474  1
 Rh  Rh4  1  0.00000  0.25050  0.39474  1
