CIF file written using JARVIS-Tools package.
data_Mo3O7
_symmetry_space_group_name_H-M  'Cmmm'
_cell_length_a       5.72848
_cell_length_b       11.4438
_cell_length_c       7.58266
_cell_angle_alpha    90
_cell_angle_beta     90
_cell_angle_gamma    90

_symmetry_Int_Tables_number  65
_chemical_formula_structural  Mo3O7
_chemical_formula_sum  Mo2O28
_cell_volume  497.0881665240045
_cell_formula_units_Z  4
loop_
  _symmetry_equiv_pos_site_id
 _symmetry_equiv_pos_as_xyz
 1  'x, y, z'
loop_
 _atom_site_type_symbol
 _atom_site_label
 _atom_site_symmetry_multiplicity
 _atom_site_fract_x
 _atom_site_fract_y
 _atom_site_fract_z
 _atom_site_fract_occupancy
 Mo  Mo1  1  0.24996  0.01168  0.25000  1
 Mo  Mo2  1  0.74997  0.25000  0.25000  1
 Mo  Mo3  1  0.74996  0.98832  0.25000  1
 Mo  Mo4  1  0.75004  0.51168  0.75000  1
 Mo  Mo5  1  0.24997  0.75000  0.25000  1
 Mo  Mo6  1  0.74996  0.51168  0.25000  1
 Mo  Mo7  1  0.25004  0.48832  0.75000  1
 Mo  Mo8  1  0.25003  0.75000  0.75000  1
 Mo  Mo9  1  0.24996  0.48832  0.25000  1
 Mo  Mo10  1  0.25004  0.01168  0.75000  1
 Mo  Mo11  1  0.75004  0.98832  0.75000  1
 Mo  Mo12  1  0.75003  0.25000  0.75000  1
 O  O1  1  0.25003  0.00710  -0.00000  1
 O  O2  1  0.49626  0.62770  0.25003  1
 O  O3  1  0.00374  0.87230  0.75003  1
 O  O4  1  0.50374  0.12770  0.74997  1
 O  O5  1  0.99633  0.37230  0.75003  1
 O  O6  1  0.99633  0.12770  0.75003  1
 O  O7  1  0.00367  0.87230  0.24997  1
 O  O8  1  0.50367  0.37230  0.25003  1
 O  O9  1  0.00367  0.62770  0.24997  1
 O  O10  1  0.49633  0.87230  0.74997  1
 O  O11  1  0.99626  0.37230  0.24997  1
 O  O12  1  0.50367  0.12770  0.25003  1
 O  O13  1  0.49633  0.62770  0.74997  1
 O  O14  1  0.74997  0.99290  0.00000  1
 O  O15  1  0.25003  0.49290  -0.00000  1
 O  O16  1  0.50374  0.37230  0.74997  1
 O  O17  1  0.74997  0.50710  0.00000  1
 O  O18  1  0.24997  0.00710  0.50000  1
 O  O19  1  0.49626  0.87230  0.25003  1
 O  O20  1  0.75003  0.50710  0.50000  1
 O  O21  1  0.24997  0.49290  0.50000  1
 O  O22  1  0.25007  0.75000  0.00001  1
 O  O23  1  0.74993  0.25000  0.99999  1
 O  O24  1  0.24993  0.75000  0.50001  1
 O  O25  1  0.00374  0.62770  0.75003  1
 O  O26  1  0.75007  0.25000  0.49999  1
 O  O27  1  0.99626  0.12770  0.24997  1
 O  O28  1  0.75003  0.99290  0.50000  1
