CIF file written using JARVIS-Tools package.
data_ErLuB4Ru2
_symmetry_space_group_name_H-M  'Pmc2_1'
_cell_length_a       5.25973
_cell_length_b       5.84589
_cell_length_c       6.32128
_cell_angle_alpha    90
_cell_angle_beta     90
_cell_angle_gamma    90

_symmetry_Int_Tables_number  26
_chemical_formula_structural  ErLuB4Ru2
_chemical_formula_sum  Er2Lu2B8Ru4
_cell_volume  194.36532327082898
_cell_formula_units_Z  2
loop_
  _symmetry_equiv_pos_site_id
 _symmetry_equiv_pos_as_xyz
 1  'x, y, z'
loop_
 _atom_site_type_symbol
 _atom_site_label
 _atom_site_symmetry_multiplicity
 _atom_site_fract_x
 _atom_site_fract_y
 _atom_site_fract_z
 _atom_site_fract_occupancy
 B  B1  1  0.66643  0.13184  0.78718  1
 B  B2  1  0.33357  0.63184  0.21282  1
 B  B3  1  0.16475  0.86718  0.71611  1
 B  B4  1  0.83525  0.36718  0.28389  1
 B  B5  1  0.83525  0.86718  0.71611  1
 B  B6  1  0.16475  0.36718  0.28389  1
 B  B7  1  0.33357  0.13184  0.78718  1
 B  B8  1  0.66643  0.63184  0.21282  1
 Er  Er1  1  0.50000  0.48955  0.58665  1
 Er  Er2  1  0.50000  0.98955  0.41335  1
 Lu  Lu1  1  0.00000  0.51120  0.91452  1
 Lu  Lu2  1  0.00000  0.01120  0.08548  1
 Ru  Ru1  1  0.50000  0.31624  0.06661  1
 Ru  Ru2  1  0.50000  0.81624  0.93339  1
 Ru  Ru3  1  0.00000  0.68497  0.43208  1
 Ru  Ru4  1  0.00000  0.18497  0.56792  1
