CIF file written using JARVIS-Tools package.
data_SiC2
_symmetry_space_group_name_H-M  'Cmmm'
_cell_length_a       4.6934
_cell_length_b       2.95268
_cell_length_c       2.46941
_cell_angle_alpha    90
_cell_angle_beta     74.8342
_cell_angle_gamma    90

_symmetry_Int_Tables_number  65
_chemical_formula_structural  SiC2
_chemical_formula_sum  SiC2
_cell_volume  33.02945692893935
_cell_formula_units_Z  1
loop_
  _symmetry_equiv_pos_site_id
 _symmetry_equiv_pos_as_xyz
 1  'x, y, z'
loop_
 _atom_site_type_symbol
 _atom_site_label
 _atom_site_symmetry_multiplicity
 _atom_site_fract_x
 _atom_site_fract_y
 _atom_site_fract_z
 _atom_site_fract_occupancy
 C  C1  1  -0.10420  0.00000  -0.08142  1
 C  C2  1  0.03752  0.00000  0.34811  1
 Si  Si1  1  0.46667  0.00000  0.13331  1
