CIF file written using JARVIS-Tools package.
data_Dy4Te7
_symmetry_space_group_name_H-M  'P-4m2'
_cell_length_a       4.35841
_cell_length_b       4.35841
_cell_length_c       17.5799
_cell_angle_alpha    90
_cell_angle_beta     90
_cell_angle_gamma    90

_symmetry_Int_Tables_number  115
_chemical_formula_structural  Dy4Te7
_chemical_formula_sum  Dy4Te7
_cell_volume  333.9423019482617
_cell_formula_units_Z  1
loop_
  _symmetry_equiv_pos_site_id
 _symmetry_equiv_pos_as_xyz
 1  'x, y, z'
loop_
 _atom_site_type_symbol
 _atom_site_label
 _atom_site_symmetry_multiplicity
 _atom_site_fract_x
 _atom_site_fract_y
 _atom_site_fract_z
 _atom_site_fract_occupancy
 Dy  Dy1  1  0.50000  0.00000  0.36081  1
 Dy  Dy2  1  0.50000  0.00000  0.87162  1
 Dy  Dy3  1  0.00000  0.50000  0.12838  1
 Dy  Dy4  1  0.00000  0.50000  0.63919  1
 Te  Te1  1  0.50000  0.00000  0.17911  1
 Te  Te2  1  0.50000  0.00000  0.68995  1
 Te  Te3  1  0.00000  0.50000  0.31005  1
 Te  Te4  1  0.00000  0.50000  0.82089  1
 Te  Te5  1  0.50000  0.50000  0.50000  1
 Te  Te6  1  0.00000  0.00000  0.00000  1
 Te  Te7  1  0.00000  0.00000  0.50000  1
