CIF file written using JARVIS-Tools package.
data_Li3VSiO5
_symmetry_space_group_name_H-M  'P-1'
_cell_length_a       5.04377
_cell_length_b       5.77424
_cell_length_c       6.18428
_cell_angle_alpha    75.5575
_cell_angle_beta     75.8425
_cell_angle_gamma    73.491

_symmetry_Int_Tables_number  2
_chemical_formula_structural  Li3VSiO5
_chemical_formula_sum  Li6V2Si2O0
_cell_volume  164.27516187351546
_cell_formula_units_Z  2
loop_
  _symmetry_equiv_pos_site_id
 _symmetry_equiv_pos_as_xyz
 1  'x, y, z'
loop_
 _atom_site_type_symbol
 _atom_site_label
 _atom_site_symmetry_multiplicity
 _atom_site_fract_x
 _atom_site_fract_y
 _atom_site_fract_z
 _atom_site_fract_occupancy
 Li  Li1  1  0.51454  0.24001  0.99501  1
 Li  Li2  1  0.31062  0.44684  0.39745  1
 Li  Li3  1  0.31976  0.94806  0.39290  1
 Li  Li4  1  0.68024  0.05194  0.60710  1
 Li  Li5  1  0.68938  0.55316  0.60255  1
 Li  Li6  1  0.48546  0.75999  0.00499  1
 O  O1  1  0.99898  0.24349  0.51692  1
 O  O2  1  0.83220  0.41530  0.88835  1
 O  O3  1  0.16780  0.58470  0.11165  1
 O  O4  1  0.00102  0.75651  0.48308  1
 O  O5  1  0.16063  0.04415  0.09371  1
 O  O6  1  0.64881  0.67052  0.28109  1
 O  O7  1  0.35437  0.87878  0.71392  1
 O  O8  1  0.35119  0.32948  0.71891  1
 O  O9  1  0.83937  0.95585  0.90629  1
 O  O10  1  0.64563  0.12122  0.28608  1
 Si  Si1  1  0.10229  0.14662  0.78260  1
 Si  Si2  1  0.89771  0.85338  0.21740  1
 V  V1  1  0.09460  0.64743  0.79247  1
 V  V2  1  0.90540  0.35257  0.20753  1
