CIF file written using JARVIS-Tools package.
data_Cr4InCuS8
_symmetry_space_group_name_H-M  'R3m'
_cell_length_a       7.22683
_cell_length_b       7.22682
_cell_length_c       7.22683
_cell_angle_alpha    58.6058
_cell_angle_beta     58.6058
_cell_angle_gamma    58.6057

_symmetry_Int_Tables_number  160
_chemical_formula_structural  Cr4InCuS8
_chemical_formula_sum  Cr4InCuS8
_cell_volume  258.37979519181755
_cell_formula_units_Z  1
loop_
  _symmetry_equiv_pos_site_id
 _symmetry_equiv_pos_as_xyz
 1  'x, y, z'
loop_
 _atom_site_type_symbol
 _atom_site_label
 _atom_site_symmetry_multiplicity
 _atom_site_fract_x
 _atom_site_fract_y
 _atom_site_fract_z
 _atom_site_fract_occupancy
 Cr  Cr1  1  0.37177  0.37177  0.37177  1
 Cr  Cr2  1  0.50839  0.99692  0.99692  1
 Cr  Cr3  1  0.99692  0.99692  0.50839  1
 Cr  Cr4  1  0.99692  0.50839  0.99692  1
 Cu  Cu1  1  0.62872  0.62872  0.62872  1
 In  In1  1  0.99710  0.99710  0.99710  1
 S  S1  1  0.23313  0.74424  0.74424  1
 S  S2  1  0.74424  0.74424  0.23313  1
 S  S3  1  0.74424  0.23313  0.74424  1
 S  S4  1  0.75882  0.75882  0.75882  1
 S  S5  1  0.76767  0.25569  0.25569  1
 S  S6  1  0.25569  0.25569  0.76767  1
 S  S7  1  0.25569  0.76767  0.25569  1
 S  S8  1  0.24070  0.24070  0.24070  1
