CIF file written using JARVIS-Tools package.
data_Cu7Si2
_symmetry_space_group_name_H-M  'P-3m1'
_cell_length_a       4.10752
_cell_length_b       4.10752
_cell_length_c       7.58998
_cell_angle_alpha    90
_cell_angle_beta     90
_cell_angle_gamma    120

_symmetry_Int_Tables_number  164
_chemical_formula_structural  Cu7Si2
_chemical_formula_sum  Cu7Si2
_cell_volume  110.89968617889197
_cell_formula_units_Z  1
loop_
  _symmetry_equiv_pos_site_id
 _symmetry_equiv_pos_as_xyz
 1  'x, y, z'
loop_
 _atom_site_type_symbol
 _atom_site_label
 _atom_site_symmetry_multiplicity
 _atom_site_fract_x
 _atom_site_fract_y
 _atom_site_fract_z
 _atom_site_fract_occupancy
 Cu  Cu1  1  0.33333  0.66667  0.12187  1
 Cu  Cu2  1  0.66667  0.33333  0.87813  1
 Cu  Cu3  1  0.33333  0.66667  0.46211  1
 Cu  Cu4  1  0.66667  0.33333  0.53789  1
 Cu  Cu5  1  0.00000  0.00000  0.33060  1
 Cu  Cu6  1  0.00000  0.00000  0.66940  1
 Cu  Cu7  1  0.00000  0.00000  0.00000  1
 Si  Si1  1  0.33333  0.66667  0.78174  1
 Si  Si2  1  0.66667  0.33333  0.21826  1
