CIF file written using JARVIS-Tools package.
data_Ba4Sc2Cu2O9
_symmetry_space_group_name_H-M  'Fmmm'
_cell_length_a       9.00897
_cell_length_b       8.99034
_cell_length_c       5.8869
_cell_angle_alpha    71.0808
_cell_angle_beta     70.7382
_cell_angle_gamma    38.181

_symmetry_Int_Tables_number  69
_chemical_formula_structural  Ba4Sc2Cu2O9
_chemical_formula_sum  Ba4Sc2Cu2O9
_cell_volume  276.50801426267356
_cell_formula_units_Z  1
loop_
  _symmetry_equiv_pos_site_id
 _symmetry_equiv_pos_as_xyz
 1  'x, y, z'
loop_
 _atom_site_type_symbol
 _atom_site_label
 _atom_site_symmetry_multiplicity
 _atom_site_fract_x
 _atom_site_fract_y
 _atom_site_fract_z
 _atom_site_fract_occupancy
 Ba  Ba1  1  0.87790  0.38549  0.12210  1
 Ba  Ba2  1  0.38549  0.87790  0.61451  1
 Ba  Ba3  1  0.61451  0.12210  0.38549  1
 Ba  Ba4  1  0.12210  0.61451  0.87790  1
 Cu  Cu1  1  0.73106  0.26894  0.73106  1
 Cu  Cu2  1  0.26894  0.73106  0.26894  1
 O  O1  1  0.75000  0.75000  0.75000  1
 O  O2  1  0.34152  0.88272  0.11728  1
 O  O3  1  0.65848  0.11728  0.88272  1
 O  O4  1  0.88272  0.34152  0.65848  1
 O  O5  1  0.25000  0.25000  0.25000  1
 O  O6  1  0.25629  0.25629  0.74371  1
 O  O7  1  0.11728  0.65848  0.34152  1
 O  O8  1  0.74371  0.74371  0.25629  1
 O  O9  1  0.50000  0.50000  0.50000  1
 Sc  Sc1  1  -0.00000  0.50000  0.50000  1
 Sc  Sc2  1  0.50000  -0.00000  -0.00000  1
