CIF file written using JARVIS-Tools package.
data_BiTeIr
_symmetry_space_group_name_H-M  'P2_13'
_cell_length_a       6.62865
_cell_length_b       6.62865
_cell_length_c       6.62865
_cell_angle_alpha    90
_cell_angle_beta     90
_cell_angle_gamma    90

_symmetry_Int_Tables_number  198
_chemical_formula_structural  BiTeIr
_chemical_formula_sum  Bi4Te4Ir4
_cell_volume  291.2562578219867
_cell_formula_units_Z  4
loop_
  _symmetry_equiv_pos_site_id
 _symmetry_equiv_pos_as_xyz
 1  'x, y, z'
loop_
 _atom_site_type_symbol
 _atom_site_label
 _atom_site_symmetry_multiplicity
 _atom_site_fract_x
 _atom_site_fract_y
 _atom_site_fract_z
 _atom_site_fract_occupancy
 Bi  Bi1  1  0.13166  0.86834  0.36834  1
 Bi  Bi2  1  0.86834  0.36834  0.13166  1
 Bi  Bi3  1  0.36834  0.13166  0.86834  1
 Bi  Bi4  1  0.63166  0.63166  0.63166  1
 Ir  Ir1  1  0.49360  0.50640  0.00640  1
 Ir  Ir2  1  0.50640  0.00640  0.49360  1
 Ir  Ir3  1  0.00640  0.49360  0.50640  1
 Ir  Ir4  1  0.99360  0.99360  0.99360  1
 Te  Te1  1  0.87408  0.12592  0.62592  1
 Te  Te2  1  0.12592  0.62592  0.87408  1
 Te  Te3  1  0.62592  0.87408  0.12592  1
 Te  Te4  1  0.37408  0.37408  0.37408  1
