CIF file written using JARVIS-Tools package.
data_CaIrO2
_symmetry_space_group_name_H-M  'R-3m'
_cell_length_a       4.93276
_cell_length_b       4.93276
_cell_length_c       4.93276
_cell_angle_alpha    42.0942
_cell_angle_beta     42.0942
_cell_angle_gamma    42.0943

_symmetry_Int_Tables_number  166
_chemical_formula_structural  CaIrO2
_chemical_formula_sum  CaIrO2
_cell_volume  48.797568487761254
_cell_formula_units_Z  1
loop_
  _symmetry_equiv_pos_site_id
 _symmetry_equiv_pos_as_xyz
 1  'x, y, z'
loop_
 _atom_site_type_symbol
 _atom_site_label
 _atom_site_symmetry_multiplicity
 _atom_site_fract_x
 _atom_site_fract_y
 _atom_site_fract_z
 _atom_site_fract_occupancy
 Ca  Ca1  1  0.50000  0.50000  0.50000  1
 Ir  Ir1  1  0.00000  0.00000  0.00000  1
 O  O1  1  0.27020  0.27020  0.27020  1
 O  O2  1  0.72980  0.72980  0.72980  1
