CIF file written using JARVIS-Tools package.
data_LiAgO
_symmetry_space_group_name_H-M  'Pmmm'
_cell_length_a       4.15357
_cell_length_b       3.60403
_cell_length_c       3.26609
_cell_angle_alpha    90
_cell_angle_beta     90
_cell_angle_gamma    90.0063

_symmetry_Int_Tables_number  47
_chemical_formula_structural  LiAgO
_chemical_formula_sum  LiAgO
_cell_volume  48.89202721469855
_cell_formula_units_Z  1
loop_
  _symmetry_equiv_pos_site_id
 _symmetry_equiv_pos_as_xyz
 1  'x, y, z'
loop_
 _atom_site_type_symbol
 _atom_site_label
 _atom_site_symmetry_multiplicity
 _atom_site_fract_x
 _atom_site_fract_y
 _atom_site_fract_z
 _atom_site_fract_occupancy
 Ag  Ag1  1  0.42735  -0.09573  0.00000  1
 Li  Li1  1  -0.07261  0.40437  0.00000  1
 O  O1  1  -0.07265  -0.09562  0.00000  1
