CIF file written using JARVIS-Tools package.
data_UCrCo
_symmetry_space_group_name_H-M  'Imma'
_cell_length_a       5.09
_cell_length_b       5.08999
_cell_length_c       5.09
_cell_angle_alpha    127.89
_cell_angle_beta     120.099
_cell_angle_gamma    83.3596

_symmetry_Int_Tables_number  74
_chemical_formula_structural  UCrCo
_chemical_formula_sum  U2Cr2Co2
_cell_volume  86.39270977175188
_cell_formula_units_Z  2
loop_
  _symmetry_equiv_pos_site_id
 _symmetry_equiv_pos_as_xyz
 1  'x, y, z'
loop_
 _atom_site_type_symbol
 _atom_site_label
 _atom_site_symmetry_multiplicity
 _atom_site_fract_x
 _atom_site_fract_y
 _atom_site_fract_z
 _atom_site_fract_occupancy
 Co  Co1  1  0.50000  0.50000  -0.00000  1
 Co  Co2  1  0.00000  0.50000  0.50000  1
 Cr  Cr1  1  0.00000  0.50000  -0.00000  1
 Cr  Cr2  1  0.00000  -0.00000  0.50000  1
 U  U1  1  0.39215  0.14215  0.25000  1
 U  U2  1  0.60785  0.85785  0.75000  1
