CIF file written using JARVIS-Tools package.
data_Ba3La2Ti2Nb2O15
_symmetry_space_group_name_H-M  'P-3m1'
_cell_length_a       5.70923
_cell_length_b       5.70922
_cell_length_c       11.6351
_cell_angle_alpha    90
_cell_angle_beta     90
_cell_angle_gamma    120

_symmetry_Int_Tables_number  164
_chemical_formula_structural  Ba3La2Ti2Nb2O15
_chemical_formula_sum  Ba3La2Ti2Nb2O5
_cell_volume  328.44070813355853
_cell_formula_units_Z  1
loop_
  _symmetry_equiv_pos_site_id
 _symmetry_equiv_pos_as_xyz
 1  'x, y, z'
loop_
 _atom_site_type_symbol
 _atom_site_label
 _atom_site_symmetry_multiplicity
 _atom_site_fract_x
 _atom_site_fract_y
 _atom_site_fract_z
 _atom_site_fract_occupancy
 Ba  Ba1  1  0.66667  0.33333  0.57832  1
 Ba  Ba2  1  0.33333  0.66667  0.42168  1
 Ba  Ba3  1  0.00000  0.00000  0.00000  1
 La  La1  1  0.66667  0.33333  0.21370  1
 La  La2  1  0.33333  0.66667  0.78630  1
 Nb  Nb1  1  0.00000  0.00000  0.30825  1
 Nb  Nb2  1  0.00000  0.00000  0.69175  1
 O  O1  1  0.34484  0.17242  0.38155  1
 O  O2  1  0.82758  0.65516  0.38155  1
 O  O3  1  0.50000  0.50000  0.00000  1
 O  O4  1  0.65516  0.82758  0.61845  1
 O  O5  1  0.17242  0.34484  0.61845  1
 O  O6  1  0.17242  0.82758  0.61845  1
 O  O7  1  0.82758  0.17242  0.38155  1
 O  O8  1  0.16939  0.33878  0.19288  1
 O  O9  1  0.83061  0.16939  0.80712  1
 O  O10  1  0.66122  0.83061  0.19288  1
 O  O11  1  0.33878  0.16939  0.80712  1
 O  O12  1  0.16939  0.83061  0.19288  1
 O  O13  1  0.50000  0.00000  0.00000  1
 O  O14  1  0.83061  0.66122  0.80712  1
 O  O15  1  -0.00000  0.50000  0.00000  1
 Ti  Ti1  1  0.33333  0.66667  0.09717  1
 Ti  Ti2  1  0.66667  0.33333  0.90283  1
