CIF file written using JARVIS-Tools package.
data_RbCaN
_symmetry_space_group_name_H-M  'P4mm'
_cell_length_a       3.99432
_cell_length_b       3.99432
_cell_length_c       8.66454
_cell_angle_alpha    90
_cell_angle_beta     90
_cell_angle_gamma    90

_symmetry_Int_Tables_number  99
_chemical_formula_structural  RbCaN
_chemical_formula_sum  RbCaN
_cell_volume  138.239013674814
_cell_formula_units_Z  1
loop_
  _symmetry_equiv_pos_site_id
 _symmetry_equiv_pos_as_xyz
 1  'x, y, z'
loop_
 _atom_site_type_symbol
 _atom_site_label
 _atom_site_symmetry_multiplicity
 _atom_site_fract_x
 _atom_site_fract_y
 _atom_site_fract_z
 _atom_site_fract_occupancy
 Ca  Ca1  1  0.00000  0.00000  0.52754  1
 N  N1  1  0.00000  0.00000  0.76866  1
 Rb  Rb1  1  0.00000  0.00000  0.06333  1
