CIF file written using JARVIS-Tools package.
data_BaMgIn3
_symmetry_space_group_name_H-M  'I-4m2'
_cell_length_a       7.20927
_cell_length_b       7.20927
_cell_length_c       7.20928
_cell_angle_alpha    140.656
_cell_angle_beta     140.656
_cell_angle_gamma    56.859

_symmetry_Int_Tables_number  119
_chemical_formula_structural  BaMgIn3
_chemical_formula_sum  BaMgIn3
_cell_volume  149.3643151699559
_cell_formula_units_Z  1
loop_
  _symmetry_equiv_pos_site_id
 _symmetry_equiv_pos_as_xyz
 1  'x, y, z'
loop_
 _atom_site_type_symbol
 _atom_site_label
 _atom_site_symmetry_multiplicity
 _atom_site_fract_x
 _atom_site_fract_y
 _atom_site_fract_z
 _atom_site_fract_occupancy
 Ba  Ba1  1  0.00000  0.00000  0.00000  1
 In  In1  1  0.38601  0.38601  -0.00000  1
 In  In2  1  0.61399  0.61399  0.00000  1
 In  In3  1  0.25000  0.75000  0.50000  1
 Mg  Mg1  1  0.75000  0.25000  0.50000  1
