CIF file written using JARVIS-Tools package.
data_HfTa2VC4
_symmetry_space_group_name_H-M  'R3m'
_cell_length_a       10.3964
_cell_length_b       10.3964
_cell_length_c       10.3964
_cell_angle_alpha    17.4656
_cell_angle_beta     17.4656
_cell_angle_gamma    17.4656

_symmetry_Int_Tables_number  160
_chemical_formula_structural  HfTa2VC4
_chemical_formula_sum  HfTa2VC4
_cell_volume  88.33943848732932
_cell_formula_units_Z  1
loop_
  _symmetry_equiv_pos_site_id
 _symmetry_equiv_pos_as_xyz
 1  'x, y, z'
loop_
 _atom_site_type_symbol
 _atom_site_label
 _atom_site_symmetry_multiplicity
 _atom_site_fract_x
 _atom_site_fract_y
 _atom_site_fract_z
 _atom_site_fract_occupancy
 C  C1  1  0.62399  0.62399  0.62399  1
 C  C2  1  0.87308  0.87308  0.87308  1
 C  C3  1  0.38015  0.38015  0.38015  1
 C  C4  1  0.12256  0.12256  0.12256  1
 Hf  Hf1  1  0.00320  0.00320  0.00320  1
 Ta  Ta1  1  0.49669  0.49669  0.49669  1
 Ta  Ta2  1  0.24884  0.24884  0.24884  1
 V  V1  1  0.75148  0.75148  0.75148  1
