CIF file written using JARVIS-Tools package.
data_CrSbO4
_symmetry_space_group_name_H-M  'I-4m2'
_cell_length_a       5.5423
_cell_length_b       5.54232
_cell_length_c       5.5423
_cell_angle_alpha    138.326
_cell_angle_beta     138.326
_cell_angle_gamma    60.4038

_symmetry_Int_Tables_number  119
_chemical_formula_structural  CrSbO4
_chemical_formula_sum  CrSbO4
_cell_volume  74.46749624339904
_cell_formula_units_Z  1
loop_
  _symmetry_equiv_pos_site_id
 _symmetry_equiv_pos_as_xyz
 1  'x, y, z'
loop_
 _atom_site_type_symbol
 _atom_site_label
 _atom_site_symmetry_multiplicity
 _atom_site_fract_x
 _atom_site_fract_y
 _atom_site_fract_z
 _atom_site_fract_occupancy
 Cr  Cr1  1  0.75000  0.25000  0.50000  1
 O  O1  1  0.54340  0.04340  0.50000  1
 O  O2  1  0.20831  0.20831  0.00000  1
 O  O3  1  0.95660  0.45660  0.50000  1
 O  O4  1  0.79169  0.79169  0.00000  1
 Sb  Sb1  1  -0.00000  0.00000  -0.00000  1
