CIF file written using JARVIS-Tools package.
data_Ba2Sr3CaMg2Si4O16
_symmetry_space_group_name_H-M  'P3m1'
_cell_length_a       5.50234
_cell_length_b       5.50234
_cell_length_c       13.9983
_cell_angle_alpha    90
_cell_angle_beta     90
_cell_angle_gamma    120

_symmetry_Int_Tables_number  156
_chemical_formula_structural  Ba2Sr3CaMg2Si4O16
_chemical_formula_sum  Ba2Sr3CaMg2Si4O6
_cell_volume  367.03013878206923
_cell_formula_units_Z  1
loop_
  _symmetry_equiv_pos_site_id
 _symmetry_equiv_pos_as_xyz
 1  'x, y, z'
loop_
 _atom_site_type_symbol
 _atom_site_label
 _atom_site_symmetry_multiplicity
 _atom_site_fract_x
 _atom_site_fract_y
 _atom_site_fract_z
 _atom_site_fract_occupancy
 Ba  Ba1  1  0.33333  0.66667  0.25156  1
 Ba  Ba2  1  0.33333  0.66667  0.74883  1
 Ca  Ca1  1  0.66667  0.33333  0.41779  1
 Mg  Mg1  1  0.33333  0.66667  0.00171  1
 Mg  Mg2  1  0.33333  0.66667  0.49821  1
 O  O1  1  0.66667  0.33333  0.25601  1
 O  O2  1  0.68247  0.84123  0.41089  1
 O  O3  1  0.00000  0.00000  0.24829  1
 O  O4  1  0.00000  0.00000  0.74914  1
 O  O5  1  0.50811  0.49189  0.09127  1
 O  O6  1  0.50808  0.49192  0.58571  1
 O  O7  1  0.66667  0.33333  0.74891  1
 O  O8  1  0.50808  0.01617  0.58571  1
 O  O9  1  0.98378  0.49189  0.09127  1
 O  O10  1  0.98383  0.49192  0.58571  1
 O  O11  1  0.15877  0.31753  0.41089  1
 O  O12  1  0.15899  0.84101  0.91217  1
 O  O13  1  0.50811  0.01622  0.09127  1
 O  O14  1  0.15899  0.31798  0.91217  1
 O  O15  1  0.15877  0.84123  0.41089  1
 O  O16  1  0.68202  0.84101  0.91217  1
 Si  Si1  1  0.66667  0.33333  0.13971  1
 Si  Si2  1  0.66667  0.33333  0.63331  1
 Si  Si3  1  0.00000  0.00000  0.36335  1
 Si  Si4  1  0.00000  0.00000  0.86435  1
 Sr  Sr1  1  0.00000  0.00000  0.57820  1
 Sr  Sr2  1  0.00000  0.00000  0.08028  1
 Sr  Sr3  1  0.66667  0.33333  0.92023  1
