CIF file written using JARVIS-Tools package.
data_Ba2Ti4O13
_symmetry_space_group_name_H-M  'C2/m'
_cell_length_a       7.42936
_cell_length_b       7.42936
_cell_length_c       9.71485
_cell_angle_alpha    81.0331
_cell_angle_beta     81.033
_cell_angle_gamma    30.5008

_symmetry_Int_Tables_number  12
_chemical_formula_structural  Ba2Ti4O13
_chemical_formula_sum  Ba2Ti4O3
_cell_volume  268.58088671118014
_cell_formula_units_Z  1
loop_
  _symmetry_equiv_pos_site_id
 _symmetry_equiv_pos_as_xyz
 1  'x, y, z'
loop_
 _atom_site_type_symbol
 _atom_site_label
 _atom_site_symmetry_multiplicity
 _atom_site_fract_x
 _atom_site_fract_y
 _atom_site_fract_z
 _atom_site_fract_occupancy
 Ba  Ba1  1  0.42475  0.42475  0.75968  1
 Ba  Ba2  1  0.57525  0.57525  0.24032  1
 O  O1  1  0.11064  0.11064  0.42204  1
 O  O2  1  0.88936  0.88936  0.57796  1
 O  O3  1  0.37896  0.37896  0.10737  1
 O  O4  1  0.69391  0.69391  0.55237  1
 O  O5  1  0.16040  0.16040  0.06553  1
 O  O6  1  0.62104  0.62104  0.89263  1
 O  O7  1  0.06343  0.06343  0.71578  1
 O  O8  1  0.93657  0.93657  0.28422  1
 O  O9  1  0.23840  0.23840  0.74657  1
 O  O10  1  0.76160  0.76160  0.25343  1
 O  O11  1  0.30609  0.30609  0.44763  1
 O  O12  1  0.83960  0.83960  0.93447  1
 O  O13  1  0.00000  0.00000  0.00000  1
 Ti  Ti1  1  0.83086  0.83086  0.42487  1
 Ti  Ti2  1  0.16914  0.16914  0.57513  1
 Ti  Ti3  1  0.86815  0.86815  0.11531  1
 Ti  Ti4  1  0.13185  0.13185  0.88469  1
