CIF file written using JARVIS-Tools package.
data_TbAlCu
_symmetry_space_group_name_H-M  'Imma'
_cell_length_a       5.37646
_cell_length_b       5.37646
_cell_length_c       5.37646
_cell_angle_alpha    118.674
_cell_angle_beta     119.021
_cell_angle_gamma    92.008

_symmetry_Int_Tables_number  74
_chemical_formula_structural  TbAlCu
_chemical_formula_sum  Tb2Al2Cu2
_cell_volume  111.73265336454567
_cell_formula_units_Z  2
loop_
  _symmetry_equiv_pos_site_id
 _symmetry_equiv_pos_as_xyz
 1  'x, y, z'
loop_
 _atom_site_type_symbol
 _atom_site_label
 _atom_site_symmetry_multiplicity
 _atom_site_fract_x
 _atom_site_fract_y
 _atom_site_fract_z
 _atom_site_fract_occupancy
 Al  Al1  1  0.50000  0.50000  0.50000  1
 Al  Al2  1  0.50000  0.00000  0.00000  1
 Cu  Cu1  1  0.50000  0.50000  -0.00000  1
 Cu  Cu2  1  -0.00000  0.50000  0.50000  1
 Tb  Tb1  1  0.12180  0.87180  0.25000  1
 Tb  Tb2  1  0.87820  0.12820  0.75000  1
