CIF file written using JARVIS-Tools package.
data_Al4InAgTe8
_symmetry_space_group_name_H-M  'C2'
_cell_length_a       7.40011
_cell_length_b       7.40011
_cell_length_c       8.76014
_cell_angle_alpha    89.8642
_cell_angle_beta     89.8642
_cell_angle_gamma    107.449

_symmetry_Int_Tables_number  5
_chemical_formula_structural  Al4InAgTe8
_chemical_formula_sum  Al4InAgTe8
_cell_volume  457.6406123941837
_cell_formula_units_Z  1
loop_
  _symmetry_equiv_pos_site_id
 _symmetry_equiv_pos_as_xyz
 1  'x, y, z'
loop_
 _atom_site_type_symbol
 _atom_site_label
 _atom_site_symmetry_multiplicity
 _atom_site_fract_x
 _atom_site_fract_y
 _atom_site_fract_z
 _atom_site_fract_occupancy
 Ag  Ag1  1  0.99682  0.00318  -0.00000  1
 Al  Al1  1  0.98776  0.01224  0.50000  1
 Al  Al2  1  0.51220  0.48780  0.00000  1
 Al  Al3  1  0.98989  0.48884  0.75449  1
 Al  Al4  1  0.51116  0.01011  0.24551  1
 In  In1  1  0.50332  0.49668  0.50000  1
 Te  Te1  1  0.39275  0.11760  0.98800  1
 Te  Te2  1  0.90744  0.63100  0.48675  1
 Te  Te3  1  0.88240  0.60725  0.01200  1
 Te  Te4  1  0.36900  0.09256  0.51325  1
 Te  Te5  1  0.87922  0.15824  0.25828  1
 Te  Te6  1  0.37226  0.64598  0.76541  1
 Te  Te7  1  0.84176  0.12078  0.74172  1
 Te  Te8  1  0.35402  0.62774  0.23459  1
