CIF file written using JARVIS-Tools package.
data_YbAlCu
_symmetry_space_group_name_H-M  'Imma'
_cell_length_a       5.35834
_cell_length_b       5.35834
_cell_length_c       5.35834
_cell_angle_alpha    119.677
_cell_angle_beta     117.504
_cell_angle_gamma    92.4689

_symmetry_Int_Tables_number  74
_chemical_formula_structural  YbAlCu
_chemical_formula_sum  Yb2Al2Cu2
_cell_volume  110.9451950434327
_cell_formula_units_Z  2
loop_
  _symmetry_equiv_pos_site_id
 _symmetry_equiv_pos_as_xyz
 1  'x, y, z'
loop_
 _atom_site_type_symbol
 _atom_site_label
 _atom_site_symmetry_multiplicity
 _atom_site_fract_x
 _atom_site_fract_y
 _atom_site_fract_z
 _atom_site_fract_occupancy
 Al  Al1  1  -0.00000  0.50000  -0.00000  1
 Al  Al2  1  -0.00000  0.00000  0.50000  1
 Cu  Cu1  1  0.50000  0.50000  0.00000  1
 Cu  Cu2  1  -0.00000  0.50000  0.50000  1
 Yb  Yb1  1  0.38220  0.13220  0.25000  1
 Yb  Yb2  1  0.61780  0.86780  0.75000  1
