CIF file written using JARVIS-Tools package.
data_CaN
_symmetry_space_group_name_H-M  'P1'
_cell_length_a       4.65586
_cell_length_b       6.31493
_cell_length_c       5.5363
_cell_angle_alpha    114.291
_cell_angle_beta     76.1015
_cell_angle_gamma    101.242

_symmetry_Int_Tables_number  1
_chemical_formula_structural  CaN
_chemical_formula_sum  Ca2N2
_cell_volume  143.1678860173972
_cell_formula_units_Z  2
loop_
  _symmetry_equiv_pos_site_id
 _symmetry_equiv_pos_as_xyz
 1  'x, y, z'
loop_
 _atom_site_type_symbol
 _atom_site_label
 _atom_site_symmetry_multiplicity
 _atom_site_fract_x
 _atom_site_fract_y
 _atom_site_fract_z
 _atom_site_fract_occupancy
 Ca  Ca1  1  0.96012  0.85472  0.98844  1
 Ca  Ca2  1  0.39510  0.06733  0.46776  1
 N  N1  1  0.48713  0.72317  0.96475  1
 N  N2  1  0.22512  0.62882  0.93381  1
