CIF file written using JARVIS-Tools package.
data_AgHgAsO4
_symmetry_space_group_name_H-M  'Fdd2'
_cell_length_a       8.13603
_cell_length_b       6.98277
_cell_length_c       6.09185
_cell_angle_alpha    76.6286
_cell_angle_beta     56.6146
_cell_angle_gamma    46.7568

_symmetry_Int_Tables_number  43
_chemical_formula_structural  AgHgAsO4
_chemical_formula_sum  Ag2Hg2As2O8
_cell_volume  204.37844065173957
_cell_formula_units_Z  2
loop_
  _symmetry_equiv_pos_site_id
 _symmetry_equiv_pos_as_xyz
 1  'x, y, z'
loop_
 _atom_site_type_symbol
 _atom_site_label
 _atom_site_symmetry_multiplicity
 _atom_site_fract_x
 _atom_site_fract_y
 _atom_site_fract_z
 _atom_site_fract_occupancy
 Ag  Ag1  1  0.69973  0.80027  0.69973  1
 Ag  Ag2  1  0.44973  0.55027  0.44973  1
 As  As1  1  0.37793  0.12207  0.37793  1
 As  As2  1  0.12793  0.87207  0.12793  1
 Hg  Hg1  1  0.05526  0.44474  0.05526  1
 Hg  Hg2  1  0.80526  0.19474  0.80526  1
 O  O1  1  0.04808  0.29191  0.49158  1
 O  O2  1  0.38807  0.26214  0.56434  1
 O  O3  1  0.49158  0.16843  0.04808  1
 O  O4  1  0.56434  0.78544  0.38807  1
 O  O5  1  0.46456  0.68566  0.98786  1
 O  O6  1  0.08157  0.75842  0.95809  1
 O  O7  1  0.98786  0.86193  0.46456  1
 O  O8  1  0.95809  0.20192  0.08157  1
