CIF file written using JARVIS-Tools package.
data_TaCoNi2
_symmetry_space_group_name_H-M  'Amm2'
_cell_length_a       5.15669
_cell_length_b       5.15669
_cell_length_c       4.19317
_cell_angle_alpha    90
_cell_angle_beta     90
_cell_angle_gamma    119.077

_symmetry_Int_Tables_number  38
_chemical_formula_structural  TaCoNi2
_chemical_formula_sum  Ta2Co2Ni4
_cell_volume  97.44879356827765
_cell_formula_units_Z  2
loop_
  _symmetry_equiv_pos_site_id
 _symmetry_equiv_pos_as_xyz
 1  'x, y, z'
loop_
 _atom_site_type_symbol
 _atom_site_label
 _atom_site_symmetry_multiplicity
 _atom_site_fract_x
 _atom_site_fract_y
 _atom_site_fract_z
 _atom_site_fract_occupancy
 Co  Co1  1  0.84329  0.67908  0.00000  1
 Co  Co2  1  0.32092  0.15671  0.00000  1
 Ni  Ni1  1  0.83896  0.16104  0.00000  1
 Ni  Ni2  1  0.15675  0.32050  0.50000  1
 Ni  Ni3  1  0.67950  0.84325  0.50000  1
 Ni  Ni4  1  0.16082  0.83918  0.50000  1
 Ta  Ta1  1  0.33787  0.66213  0.00000  1
 Ta  Ta2  1  0.66164  0.33836  0.50000  1
