CIF file written using JARVIS-Tools package.
data_TiCrAgS4
_symmetry_space_group_name_H-M  'Pmn2_1'
_cell_length_a       3.45574
_cell_length_b       11.2011
_cell_length_c       12.8606
_cell_angle_alpha    90
_cell_angle_beta     90
_cell_angle_gamma    90

_symmetry_Int_Tables_number  31
_chemical_formula_structural  TiCrAgS4
_chemical_formula_sum  Ti4Cr4Ag4S6
_cell_volume  497.8091608750683
_cell_formula_units_Z  4
loop_
  _symmetry_equiv_pos_site_id
 _symmetry_equiv_pos_as_xyz
 1  'x, y, z'
loop_
 _atom_site_type_symbol
 _atom_site_label
 _atom_site_symmetry_multiplicity
 _atom_site_fract_x
 _atom_site_fract_y
 _atom_site_fract_z
 _atom_site_fract_occupancy
 Ag  Ag1  1  0.50000  0.00508  0.81831  1
 Ag  Ag2  1  0.50000  0.50135  0.68701  1
 Ag  Ag3  1  0.00000  0.49865  0.18701  1
 Ag  Ag4  1  0.00000  -0.00508  0.31831  1
 Cr  Cr1  1  0.50000  0.69168  0.88873  1
 Cr  Cr2  1  0.00000  0.30832  0.38873  1
 Cr  Cr3  1  0.50000  0.66311  0.40929  1
 Cr  Cr4  1  0.00000  0.33689  0.90929  1
 S  S1  1  0.00000  0.83514  0.92874  1
 S  S2  1  0.50000  0.65614  0.06916  1
 S  S3  1  0.00000  0.21510  0.21483  1
 S  S4  1  0.00000  0.54813  0.84871  1
 S  S5  1  0.50000  0.28528  0.79021  1
 S  S6  1  0.50000  0.45187  0.34871  1
 S  S7  1  0.00000  0.71472  0.29021  1
 S  S8  1  0.50000  0.78490  0.71483  1
 S  S9  1  0.50000  0.16486  0.42874  1
 S  S10  1  0.00000  0.04903  0.64608  1
 S  S11  1  0.50000  0.86969  0.46221  1
 S  S12  1  0.50000  0.37747  0.03235  1
 S  S13  1  0.00000  0.13031  0.96221  1
 S  S14  1  0.00000  0.34386  0.56916  1
 S  S15  1  0.50000  0.95097  0.14608  1
 S  S16  1  0.00000  0.62253  0.53235  1
 Ti  Ti1  1  0.50000  0.17723  0.08881  1
 Ti  Ti2  1  0.00000  0.82277  0.58881  1
 Ti  Ti3  1  0.50000  0.19955  0.61557  1
 Ti  Ti4  1  0.00000  0.80045  0.11557  1
