CIF file written using JARVIS-Tools package.
data_CaN2
_symmetry_space_group_name_H-M  'P2/m'
_cell_length_a       4.25611
_cell_length_b       3.41289
_cell_length_c       3.28076
_cell_angle_alpha    90
_cell_angle_beta     81.5923
_cell_angle_gamma    90

_symmetry_Int_Tables_number  10
_chemical_formula_structural  CaN2
_chemical_formula_sum  CaN2
_cell_volume  47.14303905636823
_cell_formula_units_Z  1
loop_
  _symmetry_equiv_pos_site_id
 _symmetry_equiv_pos_as_xyz
 1  'x, y, z'
loop_
 _atom_site_type_symbol
 _atom_site_label
 _atom_site_symmetry_multiplicity
 _atom_site_fract_x
 _atom_site_fract_y
 _atom_site_fract_z
 _atom_site_fract_occupancy
 Ca  Ca1  1  0.46666  0.00000  -0.20000  1
 N  N1  1  -0.14137  0.00000  0.19737  1
 N  N2  1  0.07471  0.00000  0.40263  1
