CIF file written using JARVIS-Tools package.
data_RbAgS
_symmetry_space_group_name_H-M  'P4mm'
_cell_length_a       7.10732
_cell_length_b       7.10732
_cell_length_c       8.3684
_cell_angle_alpha    90
_cell_angle_beta     90
_cell_angle_gamma    90

_symmetry_Int_Tables_number  99
_chemical_formula_structural  RbAgS
_chemical_formula_sum  RbAgS
_cell_volume  422.72149555032854
_cell_formula_units_Z  1
loop_
  _symmetry_equiv_pos_site_id
 _symmetry_equiv_pos_as_xyz
 1  'x, y, z'
loop_
 _atom_site_type_symbol
 _atom_site_label
 _atom_site_symmetry_multiplicity
 _atom_site_fract_x
 _atom_site_fract_y
 _atom_site_fract_z
 _atom_site_fract_occupancy
 Ag  Ag1  1  0.00000  0.00000  0.27785  1
 Rb  Rb1  1  0.00000  0.00000  0.66658  1
 S  S1  1  0.00000  0.00000  0.00699  1
