CIF file written using JARVIS-Tools package.
data_Ca3O
_symmetry_space_group_name_H-M  'P1'
_cell_length_a       5.74765
_cell_length_b       3.7557
_cell_length_c       6.42089
_cell_angle_alpha    76.2974
_cell_angle_beta     114.19
_cell_angle_gamma    89.9934

_symmetry_Int_Tables_number  1
_chemical_formula_structural  Ca3O
_chemical_formula_sum  Ca3O
_cell_volume  122.09445471689479
_cell_formula_units_Z  1
loop_
  _symmetry_equiv_pos_site_id
 _symmetry_equiv_pos_as_xyz
 1  'x, y, z'
loop_
 _atom_site_type_symbol
 _atom_site_label
 _atom_site_symmetry_multiplicity
 _atom_site_fract_x
 _atom_site_fract_y
 _atom_site_fract_z
 _atom_site_fract_occupancy
 Ca  Ca1  1  0.02049  0.24734  0.84938  1
 Ca  Ca2  1  0.42348  0.89571  0.54146  1
 Ca  Ca3  1  0.71241  0.54608  0.22426  1
 O  O1  1  0.64516  0.39433  0.54409  1
