CIF file written using JARVIS-Tools package.
data_RbAgS
_symmetry_space_group_name_H-M  'Amm2'
_cell_length_a       6.2731
_cell_length_b       6.27369
_cell_length_c       4.58443
_cell_angle_alpha    90
_cell_angle_beta     90
_cell_angle_gamma    42.2026

_symmetry_Int_Tables_number  38
_chemical_formula_structural  RbAgS
_chemical_formula_sum  RbAgS
_cell_volume  121.1994764540001
_cell_formula_units_Z  1
loop_
  _symmetry_equiv_pos_site_id
 _symmetry_equiv_pos_as_xyz
 1  'x, y, z'
loop_
 _atom_site_type_symbol
 _atom_site_label
 _atom_site_symmetry_multiplicity
 _atom_site_fract_x
 _atom_site_fract_y
 _atom_site_fract_z
 _atom_site_fract_occupancy
 Ag  Ag1  1  0.53211  -0.15646  0.00000  1
 Rb  Rb1  1  -0.19439  0.11723  0.00000  1
 S  S1  1  0.09111  0.40248  0.00000  1
