CIF file written using JARVIS-Tools package.
data_VPb2N3
_symmetry_space_group_name_H-M  'Cmce'
_cell_length_a       6.23163
_cell_length_b       11.0694
_cell_length_c       12.6325
_cell_angle_alpha    90
_cell_angle_beta     90
_cell_angle_gamma    27.3563

_symmetry_Int_Tables_number  64
_chemical_formula_structural  VPb2N3
_chemical_formula_sum  V4Pb8N2
_cell_volume  400.42824473935735
_cell_formula_units_Z  4
loop_
  _symmetry_equiv_pos_site_id
 _symmetry_equiv_pos_as_xyz
 1  'x, y, z'
loop_
 _atom_site_type_symbol
 _atom_site_label
 _atom_site_symmetry_multiplicity
 _atom_site_fract_x
 _atom_site_fract_y
 _atom_site_fract_z
 _atom_site_fract_occupancy
 N  N1  1  0.50000  0.98006  0.75000  1
 N  N2  1  0.50000  0.48006  0.75000  1
 N  N3  1  -0.00000  0.90790  0.61506  1
 N  N4  1  0.00000  0.09210  0.38494  1
 N  N5  1  0.00000  0.59210  0.11506  1
 N  N6  1  -0.00000  0.40790  0.88494  1
 N  N7  1  0.00000  0.64887  0.55010  1
 N  N8  1  -0.00000  0.35113  0.44990  1
 N  N9  1  -0.00000  0.85113  0.05010  1
 N  N10  1  0.00000  0.14887  0.94990  1
 N  N11  1  0.50000  0.51994  0.25000  1
 N  N12  1  0.50000  0.01994  0.25000  1
 Pb  Pb1  1  0.00000  0.93797  0.86949  1
 Pb  Pb2  1  -0.00000  0.56203  0.36949  1
 Pb  Pb3  1  -0.00000  0.06203  0.13051  1
 Pb  Pb4  1  -0.00000  0.63520  0.92446  1
 Pb  Pb5  1  -0.00000  0.13520  0.57554  1
 Pb  Pb6  1  0.00000  0.86480  0.42446  1
 Pb  Pb7  1  0.00000  0.36480  0.07554  1
 Pb  Pb8  1  0.00000  0.43797  0.63051  1
 V  V1  1  0.00000  0.75406  0.66247  1
 V  V2  1  -0.00000  0.24594  0.33753  1
 V  V3  1  -0.00000  0.74594  0.16247  1
 V  V4  1  0.00000  0.25406  0.83753  1
