CIF file written using JARVIS-Tools package.
data_CaSnS
_symmetry_space_group_name_H-M  'Pmm2'
_cell_length_a       6.52995
_cell_length_b       4.09212
_cell_length_c       3.74517
_cell_angle_alpha    90
_cell_angle_beta     90
_cell_angle_gamma    90.0096

_symmetry_Int_Tables_number  25
_chemical_formula_structural  CaSnS
_chemical_formula_sum  CaSnS
_cell_volume  100.07590627000384
_cell_formula_units_Z  1
loop_
  _symmetry_equiv_pos_site_id
 _symmetry_equiv_pos_as_xyz
 1  'x, y, z'
loop_
 _atom_site_type_symbol
 _atom_site_label
 _atom_site_symmetry_multiplicity
 _atom_site_fract_x
 _atom_site_fract_y
 _atom_site_fract_z
 _atom_site_fract_occupancy
 Ca  Ca1  1  0.43092  0.09363  0.00000  1
 S  S1  1  0.18445  0.59358  0.00000  1
 Sn  Sn1  1  -0.19129  -0.40633  0.00000  1
