CIF file written using JARVIS-Tools package.
data_CoRh2O6
_symmetry_space_group_name_H-M  'C2/m'
_cell_length_a       5.07005
_cell_length_b       5.06993
_cell_length_c       5.69738
_cell_angle_alpha    70.8459
_cell_angle_beta     70.7513
_cell_angle_gamma    117.248

_symmetry_Int_Tables_number  12
_chemical_formula_structural  CoRh2O6
_chemical_formula_sum  CoRh2O6
_cell_volume  100.93301502769458
_cell_formula_units_Z  1
loop_
  _symmetry_equiv_pos_site_id
 _symmetry_equiv_pos_as_xyz
 1  'x, y, z'
loop_
 _atom_site_type_symbol
 _atom_site_label
 _atom_site_symmetry_multiplicity
 _atom_site_fract_x
 _atom_site_fract_y
 _atom_site_fract_z
 _atom_site_fract_occupancy
 Co  Co1  1  0.00000  0.00000  0.00000  1
 O  O1  1  0.85742  0.18356  0.20628  1
 O  O2  1  0.18332  0.85768  0.20627  1
 O  O3  1  0.53756  0.53785  0.23485  1
 O  O4  1  0.14258  0.81644  0.79372  1
 O  O5  1  0.46244  0.46215  0.76515  1
 O  O6  1  0.81668  0.14232  0.79373  1
 Rh  Rh1  1  0.65677  0.34323  0.00000  1
 Rh  Rh2  1  0.34323  0.65677  -0.00000  1
