CIF file written using JARVIS-Tools package.
data_Ba3WN3
_symmetry_space_group_name_H-M  'P6_3/m'
_cell_length_a       8.36494
_cell_length_b       8.36495
_cell_length_c       5.67419
_cell_angle_alpha    90
_cell_angle_beta     90
_cell_angle_gamma    120

_symmetry_Int_Tables_number  176
_chemical_formula_structural  Ba3WN3
_chemical_formula_sum  Ba6W2N6
_cell_volume  343.8430974962225
_cell_formula_units_Z  2
loop_
  _symmetry_equiv_pos_site_id
 _symmetry_equiv_pos_as_xyz
 1  'x, y, z'
loop_
 _atom_site_type_symbol
 _atom_site_label
 _atom_site_symmetry_multiplicity
 _atom_site_fract_x
 _atom_site_fract_y
 _atom_site_fract_z
 _atom_site_fract_occupancy
 Ba  Ba1  1  0.90343  0.64366  0.25000  1
 Ba  Ba2  1  0.74023  0.09657  0.25000  1
 Ba  Ba3  1  0.35634  0.25977  0.25000  1
 Ba  Ba4  1  0.09657  0.35634  0.75000  1
 Ba  Ba5  1  0.25977  0.90343  0.75000  1
 Ba  Ba6  1  0.64366  0.74023  0.75000  1
 N  N1  1  0.87817  0.56710  0.75000  1
 N  N2  1  0.68894  0.12184  0.75000  1
 N  N3  1  0.43290  0.31106  0.75000  1
 N  N4  1  0.12183  0.43290  0.25000  1
 N  N5  1  0.31106  0.87816  0.25000  1
 N  N6  1  0.56710  0.68894  0.25000  1
 W  W1  1  0.66667  0.33333  0.75000  1
 W  W2  1  0.33333  0.66667  0.25000  1
