CIF file written using JARVIS-Tools package.
data_Mn3Cr2N4
_symmetry_space_group_name_H-M  'C2/c'
_cell_length_a       6.0615
_cell_length_b       6.46892
_cell_length_c       5.38705
_cell_angle_alpha    90
_cell_angle_beta     93.3251
_cell_angle_gamma    122.249

_symmetry_Int_Tables_number  15
_chemical_formula_structural  Mn3Cr2N4
_chemical_formula_sum  Mn6Cr4N8
_cell_volume  178.22687879861664
_cell_formula_units_Z  2
loop_
  _symmetry_equiv_pos_site_id
 _symmetry_equiv_pos_as_xyz
 1  'x, y, z'
loop_
 _atom_site_type_symbol
 _atom_site_label
 _atom_site_symmetry_multiplicity
 _atom_site_fract_x
 _atom_site_fract_y
 _atom_site_fract_z
 _atom_site_fract_occupancy
 Cr  Cr1  1  0.68440  0.19581  0.63194  1
 Cr  Cr2  1  0.31560  0.51141  0.86806  1
 Cr  Cr3  1  0.31560  0.80419  0.36806  1
 Cr  Cr4  1  0.68440  0.48859  0.13194  1
 Mn  Mn1  1  0.00000  0.32479  0.25000  1
 Mn  Mn2  1  0.36090  0.08659  0.94868  1
 Mn  Mn3  1  0.36090  0.27431  0.44868  1
 Mn  Mn4  1  0.63910  0.91341  0.05132  1
 Mn  Mn5  1  0.63910  0.72569  0.55132  1
 Mn  Mn6  1  -0.00000  0.67521  0.75000  1
 N  N1  1  0.26251  0.50930  0.52112  1
 N  N2  1  0.26251  0.75321  0.02112  1
 N  N3  1  0.27896  0.99271  0.60882  1
 N  N4  1  0.72104  0.71375  0.89118  1
 N  N5  1  0.72104  0.00729  0.39118  1
 N  N6  1  0.27896  0.28625  0.10882  1
 N  N7  1  0.73749  0.24679  0.97888  1
 N  N8  1  0.73749  0.49070  0.47888  1
