CIF file written using JARVIS-Tools package.
data_Nd2CdAu2
_symmetry_space_group_name_H-M  'P4/mbm'
_cell_length_a       3.88262
_cell_length_b       8.09771
_cell_length_c       8.09771
_cell_angle_alpha    90
_cell_angle_beta     90
_cell_angle_gamma    90

_symmetry_Int_Tables_number  127
_chemical_formula_structural  Nd2CdAu2
_chemical_formula_sum  Nd4Cd2Au4
_cell_volume  254.59518256036125
_cell_formula_units_Z  2
loop_
  _symmetry_equiv_pos_site_id
 _symmetry_equiv_pos_as_xyz
 1  'x, y, z'
loop_
 _atom_site_type_symbol
 _atom_site_label
 _atom_site_symmetry_multiplicity
 _atom_site_fract_x
 _atom_site_fract_y
 _atom_site_fract_z
 _atom_site_fract_occupancy
 Au  Au1  1  0.00000  0.62846  0.12846  1
 Au  Au2  1  0.00000  0.37154  0.87154  1
 Au  Au3  1  0.00000  0.87154  0.62846  1
 Au  Au4  1  0.00000  0.12846  0.37154  1
 Cd  Cd1  1  0.00000  0.00000  0.00000  1
 Cd  Cd2  1  0.00000  0.50000  0.50000  1
 Nd  Nd1  1  0.50000  0.17146  0.67146  1
 Nd  Nd2  1  0.50000  0.82854  0.32854  1
 Nd  Nd3  1  0.50000  0.32854  0.17146  1
 Nd  Nd4  1  0.50000  0.67146  0.82854  1
