CIF file written using JARVIS-Tools package.
data_Mg2Mn3MoS8
_symmetry_space_group_name_H-M  'R-3m'
_cell_length_a       7.33269
_cell_length_b       7.33301
_cell_length_c       7.3325
_cell_angle_alpha    59.3709
_cell_angle_beta     59.3733
_cell_angle_gamma    59.3673

_symmetry_Int_Tables_number  166
_chemical_formula_structural  Mg2Mn3MoS8
_chemical_formula_sum  Mg2Mn3MoS8
_cell_volume  274.79926546077667
_cell_formula_units_Z  1
loop_
  _symmetry_equiv_pos_site_id
 _symmetry_equiv_pos_as_xyz
 1  'x, y, z'
loop_
 _atom_site_type_symbol
 _atom_site_label
 _atom_site_symmetry_multiplicity
 _atom_site_fract_x
 _atom_site_fract_y
 _atom_site_fract_z
 _atom_site_fract_occupancy
 Mg  Mg1  1  0.87014  0.87016  0.87011  1
 Mg  Mg2  1  0.12986  0.12984  0.12989  1
 Mn  Mn1  1  0.50000  0.50000  1.00000  1
 Mn  Mn2  1  0.00000  0.50000  0.50000  1
 Mn  Mn3  1  0.50000  -0.00000  0.50000  1
 Mo  Mo1  1  0.50000  0.50000  0.50000  1
 S  S1  1  0.73504  0.73504  0.73495  1
 S  S2  1  0.26088  0.26085  0.72077  1
 S  S3  1  0.26083  0.72074  0.26079  1
 S  S4  1  0.72075  0.26083  0.26082  1
 S  S5  1  0.73917  0.27926  0.73921  1
 S  S6  1  0.27925  0.73917  0.73918  1
 S  S7  1  0.26496  0.26496  0.26505  1
 S  S8  1  0.73912  0.73915  0.27923  1
