CIF file written using JARVIS-Tools package.
data_RbAgSe
_symmetry_space_group_name_H-M  'Amm2'
_cell_length_a       6.39807
_cell_length_b       6.39749
_cell_length_c       4.65153
_cell_angle_alpha    90
_cell_angle_beta     90
_cell_angle_gamma    43.3271

_symmetry_Int_Tables_number  38
_chemical_formula_structural  RbAgSe
_chemical_formula_sum  RbAgSe
_cell_volume  130.64133079540125
_cell_formula_units_Z  1
loop_
  _symmetry_equiv_pos_site_id
 _symmetry_equiv_pos_as_xyz
 1  'x, y, z'
loop_
 _atom_site_type_symbol
 _atom_site_label
 _atom_site_symmetry_multiplicity
 _atom_site_fract_x
 _atom_site_fract_y
 _atom_site_fract_z
 _atom_site_fract_occupancy
 Ag  Ag1  1  0.52903  -0.15803  0.00000  1
 Rb  Rb1  1  -0.19412  0.11902  0.00000  1
 Se  Se1  1  0.09486  0.40787  0.00000  1
