CIF file written using JARVIS-Tools package.
data_CdSi2P3
_symmetry_space_group_name_H-M  'Imm2'
_cell_length_a       6.58702
_cell_length_b       6.58702
_cell_length_c       6.58702
_cell_angle_alpha    142.676
_cell_angle_beta     61.0488
_cell_angle_gamma    133.538

_symmetry_Int_Tables_number  44
_chemical_formula_structural  CdSi2P3
_chemical_formula_sum  CdSi2P3
_cell_volume  124.29088543893025
_cell_formula_units_Z  1
loop_
  _symmetry_equiv_pos_site_id
 _symmetry_equiv_pos_as_xyz
 1  'x, y, z'
loop_
 _atom_site_type_symbol
 _atom_site_label
 _atom_site_symmetry_multiplicity
 _atom_site_fract_x
 _atom_site_fract_y
 _atom_site_fract_z
 _atom_site_fract_occupancy
 Cd  Cd1  1  0.23709  0.73709  0.50000  1
 P  P1  1  -0.04159  -0.04159  -0.00000  1
 P  P2  1  0.35616  0.03846  0.31769  1
 P  P3  1  0.72077  0.03846  0.68231  1
 Si  Si1  1  0.56324  0.73548  0.82776  1
 Si  Si2  1  0.90772  0.73548  0.17224  1
