CIF file written using JARVIS-Tools package.
data_CdPS4
_symmetry_space_group_name_H-M  'I-4'
_cell_length_a       6.02929
_cell_length_b       6.02929
_cell_length_c       6.02929
_cell_angle_alpha    123.68
_cell_angle_beta     123.68
_cell_angle_gamma    83.7363

_symmetry_Int_Tables_number  82
_chemical_formula_structural  CdPS4
_chemical_formula_sum  CdPS4
_cell_volume  145.41113567264495
_cell_formula_units_Z  1
loop_
  _symmetry_equiv_pos_site_id
 _symmetry_equiv_pos_as_xyz
 1  'x, y, z'
loop_
 _atom_site_type_symbol
 _atom_site_label
 _atom_site_symmetry_multiplicity
 _atom_site_fract_x
 _atom_site_fract_y
 _atom_site_fract_z
 _atom_site_fract_occupancy
 Cd  Cd1  1  0.00000  0.00000  0.00000  1
 P  P1  1  0.75000  0.25000  0.50000  1
 S  S1  1  0.80666  0.37461  0.92660  1
 S  S2  1  0.44801  0.88006  0.07340  1
 S  S3  1  0.62539  0.55199  0.43205  1
 S  S4  1  0.11994  0.19334  0.56795  1
