CIF file written using JARVIS-Tools package.
data_Ce3Th3Si4
_symmetry_space_group_name_H-M  'Amm2'
_cell_length_a       7.76665
_cell_length_b       7.76665
_cell_length_c       4.16843
_cell_angle_alpha    90
_cell_angle_beta     90
_cell_angle_gamma    90.0731

_symmetry_Int_Tables_number  38
_chemical_formula_structural  Ce3Th3Si4
_chemical_formula_sum  Ce3Th3Si4
_cell_volume  251.44313293377982
_cell_formula_units_Z  1
loop_
  _symmetry_equiv_pos_site_id
 _symmetry_equiv_pos_as_xyz
 1  'x, y, z'
loop_
 _atom_site_type_symbol
 _atom_site_label
 _atom_site_symmetry_multiplicity
 _atom_site_fract_x
 _atom_site_fract_y
 _atom_site_fract_z
 _atom_site_fract_occupancy
 Ce  Ce1  1  0.50191  0.99651  0.00000  1
 Ce  Ce2  1  0.99651  0.50191  0.00000  1
 Ce  Ce3  1  0.68151  0.68151  0.50000  1
 Si  Si1  1  0.11374  0.11374  0.00000  1
 Si  Si2  1  0.88433  0.88433  0.00000  1
 Si  Si3  1  0.61460  0.38899  0.00000  1
 Si  Si4  1  0.38899  0.61460  0.00000  1
 Th  Th1  1  0.31920  0.31920  0.50000  1
 Th  Th2  1  0.18072  0.81849  0.50000  1
 Th  Th3  1  0.81849  0.18072  0.50000  1
