CIF file written using JARVIS-Tools package.
data_AgSbS
_symmetry_space_group_name_H-M  'Pmn2_1'
_cell_length_a       3.84621
_cell_length_b       5.48933
_cell_length_c       6.7571
_cell_angle_alpha    90
_cell_angle_beta     90
_cell_angle_gamma    90

_symmetry_Int_Tables_number  31
_chemical_formula_structural  AgSbS
_chemical_formula_sum  Ag2Sb2S2
_cell_volume  142.66358192150668
_cell_formula_units_Z  2
loop_
  _symmetry_equiv_pos_site_id
 _symmetry_equiv_pos_as_xyz
 1  'x, y, z'
loop_
 _atom_site_type_symbol
 _atom_site_label
 _atom_site_symmetry_multiplicity
 _atom_site_fract_x
 _atom_site_fract_y
 _atom_site_fract_z
 _atom_site_fract_occupancy
 Ag  Ag1  1  0.00000  0.29209  0.00612  1
 Ag  Ag2  1  0.50000  0.70791  0.50612  1
 S  S1  1  0.50000  0.59219  0.11604  1
 S  S2  1  0.00000  0.40781  0.61604  1
 Sb  Sb1  1  0.00000  0.06401  0.38554  1
 Sb  Sb2  1  0.50000  0.93599  0.88554  1
