CIF file written using JARVIS-Tools package.
data_TlCdTe
_symmetry_space_group_name_H-M  'Amm2'
_cell_length_a       6.78502
_cell_length_b       4.49874
_cell_length_c       3.44311
_cell_angle_alpha    90
_cell_angle_beta     90
_cell_angle_gamma    109.311

_symmetry_Int_Tables_number  38
_chemical_formula_structural  TlCdTe
_chemical_formula_sum  TlCdTe
_cell_volume  99.18426334884414
_cell_formula_units_Z  1
loop_
  _symmetry_equiv_pos_site_id
 _symmetry_equiv_pos_as_xyz
 1  'x, y, z'
loop_
 _atom_site_type_symbol
 _atom_site_label
 _atom_site_symmetry_multiplicity
 _atom_site_fract_x
 _atom_site_fract_y
 _atom_site_fract_z
 _atom_site_fract_occupancy
 Cd  Cd1  1  0.45758  0.11098  0.00000  1
 Te  Te1  1  0.16509  0.46492  0.00000  1
 Tl  Tl1  1  -0.20136  -0.21851  0.00000  1
