CIF file written using JARVIS-Tools package.
data_Co2O3F
_symmetry_space_group_name_H-M  'Imma'
_cell_length_a       5.24378
_cell_length_b       5.24358
_cell_length_c       5.24356
_cell_angle_alpha    70.0311
_cell_angle_beta     105.835
_cell_angle_gamma    67.3176

_symmetry_Int_Tables_number  74
_chemical_formula_structural  Co2O3F
_chemical_formula_sum  Co4O6F2
_cell_volume  110.58852081011213
_cell_formula_units_Z  2
loop_
  _symmetry_equiv_pos_site_id
 _symmetry_equiv_pos_as_xyz
 1  'x, y, z'
loop_
 _atom_site_type_symbol
 _atom_site_label
 _atom_site_symmetry_multiplicity
 _atom_site_fract_x
 _atom_site_fract_y
 _atom_site_fract_z
 _atom_site_fract_occupancy
 Co  Co1  1  0.22274  0.25000  0.47273  1
 Co  Co2  1  0.77727  0.75000  0.52727  1
 Co  Co3  1  0.00000  -0.00000  -0.00000  1
 Co  Co4  1  0.50000  0.50000  0.00000  1
 F  F1  1  0.53152  0.24998  0.78147  1
 F  F2  1  0.46848  0.75002  0.21853  1
 O  O1  1  0.06595  0.75001  0.81593  1
 O  O2  1  0.50001  0.80439  0.69561  1
 O  O3  1  0.00002  0.30440  0.69562  1
 O  O4  1  0.49999  0.19561  0.30439  1
 O  O5  1  -0.00003  0.69561  0.30438  1
 O  O6  1  0.93405  0.24999  0.18407  1
