CIF file written using JARVIS-Tools package.
data_AgPS4
_symmetry_space_group_name_H-M  'I-4'
_cell_length_a       5.68548
_cell_length_b       5.68548
_cell_length_c       5.68548
_cell_angle_alpha    114.149
_cell_angle_beta     114.149
_cell_angle_gamma    100.474

_symmetry_Int_Tables_number  82
_chemical_formula_structural  AgPS4
_chemical_formula_sum  AgPS4
_cell_volume  138.91838751930032
_cell_formula_units_Z  1
loop_
  _symmetry_equiv_pos_site_id
 _symmetry_equiv_pos_as_xyz
 1  'x, y, z'
loop_
 _atom_site_type_symbol
 _atom_site_label
 _atom_site_symmetry_multiplicity
 _atom_site_fract_x
 _atom_site_fract_y
 _atom_site_fract_z
 _atom_site_fract_occupancy
 Ag  Ag1  1  0.00000  0.00000  0.00000  1
 P  P1  1  0.75000  0.25000  0.50000  1
 S  S1  1  0.78228  0.31523  0.89732  1
 S  S2  1  0.41791  0.88496  0.10268  1
 S  S3  1  0.68477  0.58209  0.46705  1
 S  S4  1  0.11504  0.21772  0.53295  1
