CIF file written using JARVIS-Tools package.
data_Sr2VMoO6
_symmetry_space_group_name_H-M  'P4/mmm'
_cell_length_a       6.79349
_cell_length_b       6.79349
_cell_length_c       6.79349
_cell_angle_alpha    70.4316
_cell_angle_beta     70.7228
_cell_angle_gamma    109.568

_symmetry_Int_Tables_number  123
_chemical_formula_structural  Sr2VMoO6
_chemical_formula_sum  Sr4V2Mo2O2
_cell_volume  241.35292445017427
_cell_formula_units_Z  2
loop_
  _symmetry_equiv_pos_site_id
 _symmetry_equiv_pos_as_xyz
 1  'x, y, z'
loop_
 _atom_site_type_symbol
 _atom_site_label
 _atom_site_symmetry_multiplicity
 _atom_site_fract_x
 _atom_site_fract_y
 _atom_site_fract_z
 _atom_site_fract_occupancy
 Mo  Mo1  1  0.00000  0.50000  0.50000  1
 Mo  Mo2  1  0.50000  0.50000  -0.00000  1
 O  O1  1  0.50000  0.24710  0.25290  1
 O  O2  1  0.25000  -0.00000  0.75000  1
 O  O3  1  0.50000  0.75290  0.74710  1
 O  O4  1  0.75000  0.50000  0.75000  1
 O  O5  1  0.25000  0.50000  0.25000  1
 O  O6  1  0.75000  0.00000  0.25000  1
 O  O7  1  0.74710  0.24710  0.50000  1
 O  O8  1  0.75290  0.75289  0.00000  1
 O  O9  1  1.00000  0.75290  0.24710  1
 O  O10  1  0.24710  0.24710  1.00000  1
 O  O11  1  1.00000  0.24710  0.75290  1
 O  O12  1  0.25290  0.75290  0.50000  1
 Sr  Sr1  1  -0.00000  0.00000  0.50000  1
 Sr  Sr2  1  0.50000  0.00000  0.00000  1
 Sr  Sr3  1  0.00000  0.50000  0.00000  1
 Sr  Sr4  1  0.50000  0.50000  0.50000  1
 V  V1  1  0.50000  1.00000  0.50000  1
 V  V2  1  0.00000  -0.00000  1.00000  1
