CIF file written using JARVIS-Tools package.
data_LiFeP3O9
_symmetry_space_group_name_H-M  'P1'
_cell_length_a       6.2723
_cell_length_b       6.26814
_cell_length_c       6.26374
_cell_angle_alpha    107.484
_cell_angle_beta     107.703
_cell_angle_gamma    107.617

_symmetry_Int_Tables_number  1
_chemical_formula_structural  LiFeP3O9
_chemical_formula_sum  LiFeP3O9
_cell_volume  201.63136036567764
_cell_formula_units_Z  1
loop_
  _symmetry_equiv_pos_site_id
 _symmetry_equiv_pos_as_xyz
 1  'x, y, z'
loop_
 _atom_site_type_symbol
 _atom_site_label
 _atom_site_symmetry_multiplicity
 _atom_site_fract_x
 _atom_site_fract_y
 _atom_site_fract_z
 _atom_site_fract_occupancy
 Fe  Fe1  1  0.98983  0.99062  0.99014  1
 Li  Li1  1  0.37347  0.37308  0.37311  1
 O  O1  1  0.26671  0.86611  0.63960  1
 O  O2  1  0.09152  0.38610  0.13439  1
 O  O3  1  0.63728  0.89981  0.96848  1
 O  O4  1  0.89778  0.96468  0.63529  1
 O  O5  1  0.13556  0.09086  0.38574  1
 O  O6  1  0.86687  0.63835  0.26636  1
 O  O7  1  0.38609  0.13576  0.09178  1
 O  O8  1  0.96444  0.63621  0.89702  1
 O  O9  1  0.63849  0.26655  0.86618  1
 P  P1  1  0.03778  0.91273  0.48652  1
 P  P2  1  0.91311  0.48679  0.03708  1
 P  P3  1  0.48705  0.03835  0.91430  1
