CIF file written using JARVIS-Tools package.
data_RbCr5S8
_symmetry_space_group_name_H-M  'C2/m'
_cell_length_a       3.49872
_cell_length_b       8.67382
_cell_length_c       9.13595
_cell_angle_alpha    104.556
_cell_angle_beta     101.039
_cell_angle_gamma    90

_symmetry_Int_Tables_number  12
_chemical_formula_structural  RbCr5S8
_chemical_formula_sum  RbCr5S8
_cell_volume  263.0484565351163
_cell_formula_units_Z  1
loop_
  _symmetry_equiv_pos_site_id
 _symmetry_equiv_pos_as_xyz
 1  'x, y, z'
loop_
 _atom_site_type_symbol
 _atom_site_label
 _atom_site_symmetry_multiplicity
 _atom_site_fract_x
 _atom_site_fract_y
 _atom_site_fract_z
 _atom_site_fract_occupancy
 Cr  Cr1  1  0.29618  0.66447  0.59235  1
 Cr  Cr2  1  0.70381  0.33552  0.40763  1
 Cr  Cr3  1  0.34139  0.02615  0.68278  1
 Cr  Cr4  1  0.65862  0.97384  0.31723  1
 Cr  Cr5  1  0.00000  0.00000  0.00001  1
 Rb  Rb1  1  0.49998  0.50002  0.99997  1
 S  S1  1  0.23803  0.15700  0.47605  1
 S  S2  1  0.76198  0.84302  0.52396  1
 S  S3  1  0.17114  0.48896  0.34229  1
 S  S4  1  0.82884  0.51104  0.65769  1
 S  S5  1  0.08648  0.82851  0.17295  1
 S  S6  1  0.91354  0.17148  0.82709  1
 S  S7  1  0.42382  0.84941  0.84764  1
 S  S8  1  0.57618  0.15057  0.15237  1
