CIF file written using JARVIS-Tools package.
data_GaCuO2
_symmetry_space_group_name_H-M  'R3m'
_cell_length_a       5.93738
_cell_length_b       5.93738
_cell_length_c       5.93739
_cell_angle_alpha    28.8054
_cell_angle_beta     28.8054
_cell_angle_gamma    28.8054

_symmetry_Int_Tables_number  160
_chemical_formula_structural  GaCuO2
_chemical_formula_sum  GaCuO2
_cell_volume  42.96913852537649
_cell_formula_units_Z  1
loop_
  _symmetry_equiv_pos_site_id
 _symmetry_equiv_pos_as_xyz
 1  'x, y, z'
loop_
 _atom_site_type_symbol
 _atom_site_label
 _atom_site_symmetry_multiplicity
 _atom_site_fract_x
 _atom_site_fract_y
 _atom_site_fract_z
 _atom_site_fract_occupancy
 Cu  Cu1  1  0.15958  0.15958  0.15958  1
 Ga  Ga1  1  0.99732  0.99732  0.99732  1
 O  O1  1  0.27198  0.27198  0.27198  1
 O  O2  1  0.73012  0.73012  0.73012  1
