CIF file written using JARVIS-Tools package.
data_PbICl
_symmetry_space_group_name_H-M  'P4mm'
_cell_length_a       3.34833
_cell_length_b       3.34833
_cell_length_c       9.69967
_cell_angle_alpha    90
_cell_angle_beta     90
_cell_angle_gamma    90

_symmetry_Int_Tables_number  99
_chemical_formula_structural  PbICl
_chemical_formula_sum  PbICl
_cell_volume  108.74634392167954
_cell_formula_units_Z  1
loop_
  _symmetry_equiv_pos_site_id
 _symmetry_equiv_pos_as_xyz
 1  'x, y, z'
loop_
 _atom_site_type_symbol
 _atom_site_label
 _atom_site_symmetry_multiplicity
 _atom_site_fract_x
 _atom_site_fract_y
 _atom_site_fract_z
 _atom_site_fract_occupancy
 Cl  Cl1  1  0.00000  0.00000  0.04294  1
 I  I1  1  0.00000  0.00000  0.41646  1
 Pb  Pb1  1  0.00000  0.00000  0.78356  1
