CIF file written using JARVIS-Tools package.
data_SrCrHO2
_symmetry_space_group_name_H-M  'P4/mmm'
_cell_length_a       5.34584
_cell_length_b       5.34584
_cell_length_c       5.34583
_cell_angle_alpha    62.9105
_cell_angle_beta     117.089
_cell_angle_gamma    84.8802

_symmetry_Int_Tables_number  123
_chemical_formula_structural  SrCrHO2
_chemical_formula_sum  Sr2Cr2H2O4
_cell_volume  112.29432002791108
_cell_formula_units_Z  2
loop_
  _symmetry_equiv_pos_site_id
 _symmetry_equiv_pos_as_xyz
 1  'x, y, z'
loop_
 _atom_site_type_symbol
 _atom_site_label
 _atom_site_symmetry_multiplicity
 _atom_site_fract_x
 _atom_site_fract_y
 _atom_site_fract_z
 _atom_site_fract_occupancy
 Cr  Cr1  1  0.50000  0.50000  -0.00000  1
 Cr  Cr2  1  0.00000  -0.00000  0.00000  1
 H  H1  1  0.25000  0.75000  -0.00000  1
 H  H2  1  0.75000  0.25000  1.00000  1
 O  O1  1  0.25000  0.75000  0.50000  1
 O  O2  1  0.75000  0.25000  0.50000  1
 O  O3  1  0.25000  0.25000  0.00000  1
 O  O4  1  0.75000  0.75000  0.00000  1
 Sr  Sr1  1  0.75000  0.75000  0.50000  1
 Sr  Sr2  1  0.25000  0.25000  0.50000  1
