CIF file written using JARVIS-Tools package.
data_YMgCo2Ni2
_symmetry_space_group_name_H-M  'Imm2'
_cell_length_a       4.96439
_cell_length_b       4.9644
_cell_length_c       4.9644
_cell_angle_alpha    122.036
_cell_angle_beta     119.642
_cell_angle_gamma    88.5655

_symmetry_Int_Tables_number  44
_chemical_formula_structural  YMgCo2Ni2
_chemical_formula_sum  YMgCo2Ni2
_cell_volume  85.33932339077845
_cell_formula_units_Z  1
loop_
  _symmetry_equiv_pos_site_id
 _symmetry_equiv_pos_as_xyz
 1  'x, y, z'
loop_
 _atom_site_type_symbol
 _atom_site_label
 _atom_site_symmetry_multiplicity
 _atom_site_fract_x
 _atom_site_fract_y
 _atom_site_fract_z
 _atom_site_fract_occupancy
 Co  Co1  1  0.62347  0.87332  0.24985  1
 Co  Co2  1  0.62347  0.37362  0.75015  1
 Mg  Mg1  1  0.25517  0.75517  0.50000  1
 Ni  Ni1  1  0.12821  0.37449  0.75373  1
 Ni  Ni2  1  0.62076  0.37449  0.24627  1
 Y  Y1  1  0.99891  0.99891  -0.00000  1
