CIF file written using JARVIS-Tools package.
data_WNCl4
_symmetry_space_group_name_H-M  'I4'
_cell_length_a       6.14945
_cell_length_b       6.14945
_cell_length_c       6.14945
_cell_angle_alpha    96.0082
_cell_angle_beta     96.0082
_cell_angle_gamma    142.247

_symmetry_Int_Tables_number  79
_chemical_formula_structural  WNCl4
_chemical_formula_sum  WNCl4
_cell_volume  134.7203312643701
_cell_formula_units_Z  1
loop_
  _symmetry_equiv_pos_site_id
 _symmetry_equiv_pos_as_xyz
 1  'x, y, z'
loop_
 _atom_site_type_symbol
 _atom_site_label
 _atom_site_symmetry_multiplicity
 _atom_site_fract_x
 _atom_site_fract_y
 _atom_site_fract_z
 _atom_site_fract_occupancy
 Cl  Cl1  1  0.19913  0.00294  0.34731  1
 Cl  Cl2  1  0.85183  0.19913  0.19620  1
 Cl  Cl3  1  0.00294  0.65563  0.80380  1
 Cl  Cl4  1  0.65563  0.85183  0.65269  1
 N  N1  1  0.44521  0.44521  -0.00000  1
 W  W1  1  0.00037  0.00037  0.00000  1
