CIF file written using JARVIS-Tools package.
data_TiNCl
_symmetry_space_group_name_H-M  'P-3m1'
_cell_length_a       3.19712
_cell_length_b       3.19712
_cell_length_c       10.8904
_cell_angle_alpha    90
_cell_angle_beta     90
_cell_angle_gamma    120

_symmetry_Int_Tables_number  164
_chemical_formula_structural  TiNCl
_chemical_formula_sum  Ti2N2Cl2
_cell_volume  96.40395384472849
_cell_formula_units_Z  2
loop_
  _symmetry_equiv_pos_site_id
 _symmetry_equiv_pos_as_xyz
 1  'x, y, z'
loop_
 _atom_site_type_symbol
 _atom_site_label
 _atom_site_symmetry_multiplicity
 _atom_site_fract_x
 _atom_site_fract_y
 _atom_site_fract_z
 _atom_site_fract_occupancy
 Cl  Cl1  1  0.33333  0.66667  0.64367  1
 Cl  Cl2  1  0.66667  0.33333  0.35633  1
 N  N1  1  0.66667  0.33333  0.86374  1
 N  N2  1  0.33333  0.66667  0.13625  1
 Ti  Ti1  1  0.00000  0.00000  0.80675  1
 Ti  Ti2  1  0.00000  0.00000  0.19325  1
