CIF file written using JARVIS-Tools package.
data_Rb2Na4Co2O5
_symmetry_space_group_name_H-M  'P4_2/mnm'
_cell_length_a       6.47249
_cell_length_b       6.47249
_cell_length_c       10.0385
_cell_angle_alpha    90
_cell_angle_beta     90
_cell_angle_gamma    90

_symmetry_Int_Tables_number  136
_chemical_formula_structural  Rb2Na4Co2O5
_chemical_formula_sum  Rb4Na8Co4O0
_cell_volume  420.5456312654097
_cell_formula_units_Z  2
loop_
  _symmetry_equiv_pos_site_id
 _symmetry_equiv_pos_as_xyz
 1  'x, y, z'
loop_
 _atom_site_type_symbol
 _atom_site_label
 _atom_site_symmetry_multiplicity
 _atom_site_fract_x
 _atom_site_fract_y
 _atom_site_fract_z
 _atom_site_fract_occupancy
 Co  Co1  1  0.28977  0.28977  0.50000  1
 Co  Co2  1  0.78977  0.21023  0.00000  1
 Co  Co3  1  0.71023  0.71023  0.50000  1
 Co  Co4  1  0.21023  0.78977  0.00000  1
 Na  Na1  1  0.00000  0.50000  0.25000  1
 Na  Na2  1  0.00000  0.00000  0.22384  1
 Na  Na3  1  0.50000  0.50000  0.72384  1
 Na  Na4  1  0.50000  0.50000  0.27616  1
 Na  Na5  1  0.00000  0.00000  0.77616  1
 Na  Na6  1  0.50000  0.00000  0.75000  1
 Na  Na7  1  0.00000  0.50000  0.75000  1
 Na  Na8  1  0.50000  0.00000  0.25000  1
 O  O1  1  0.72285  0.27715  0.83038  1
 O  O2  1  0.27715  0.72285  0.83038  1
 O  O3  1  0.22285  0.22285  0.33038  1
 O  O4  1  0.77715  0.77715  0.66962  1
 O  O5  1  0.22285  0.22285  0.66962  1
 O  O6  1  0.00000  0.00000  0.00000  1
 O  O7  1  0.27715  0.72285  0.16962  1
 O  O8  1  0.77715  0.77715  0.33038  1
 O  O9  1  0.72285  0.27715  0.16962  1
 O  O10  1  0.50000  0.50000  0.50000  1
 Rb  Rb1  1  0.69798  0.69798  0.00000  1
 Rb  Rb2  1  0.80202  0.19798  0.50000  1
 Rb  Rb3  1  0.19798  0.80202  0.50000  1
 Rb  Rb4  1  0.30202  0.30202  0.00000  1
