CIF file written using JARVIS-Tools package.
data_WNCl
_symmetry_space_group_name_H-M  'R-3m'
_cell_length_a       9.13453
_cell_length_b       9.13453
_cell_length_c       9.13453
_cell_angle_alpha    22.1466
_cell_angle_beta     22.1466
_cell_angle_gamma    22.1466

_symmetry_Int_Tables_number  166
_chemical_formula_structural  WNCl
_chemical_formula_sum  W2N2Cl2
_cell_volume  94.97140522521133
_cell_formula_units_Z  2
loop_
  _symmetry_equiv_pos_site_id
 _symmetry_equiv_pos_as_xyz
 1  'x, y, z'
loop_
 _atom_site_type_symbol
 _atom_site_label
 _atom_site_symmetry_multiplicity
 _atom_site_fract_x
 _atom_site_fract_y
 _atom_site_fract_z
 _atom_site_fract_occupancy
 Cl  Cl1  1  0.38916  0.38916  0.38915  1
 Cl  Cl2  1  0.61085  0.61085  0.61084  1
 N  N1  1  0.86705  0.86705  0.86704  1
 N  N2  1  0.13295  0.13295  0.13295  1
 W  W1  1  0.78989  0.78989  0.78989  1
 W  W2  1  0.21011  0.21011  0.21011  1
