CIF file written using JARVIS-Tools package.
data_PCl
_symmetry_space_group_name_H-M  'P4/nmm'
_cell_length_a       2.97462
_cell_length_b       2.97462
_cell_length_c       9.46898
_cell_angle_alpha    90
_cell_angle_beta     90
_cell_angle_gamma    90

_symmetry_Int_Tables_number  129
_chemical_formula_structural  PCl
_chemical_formula_sum  P2Cl2
_cell_volume  83.78490785614548
_cell_formula_units_Z  2
loop_
  _symmetry_equiv_pos_site_id
 _symmetry_equiv_pos_as_xyz
 1  'x, y, z'
loop_
 _atom_site_type_symbol
 _atom_site_label
 _atom_site_symmetry_multiplicity
 _atom_site_fract_x
 _atom_site_fract_y
 _atom_site_fract_z
 _atom_site_fract_occupancy
 Cl  Cl1  1  0.00000  0.00000  0.83751  1
 Cl  Cl2  1  0.50000  0.50000  0.16249  1
 P  P1  1  0.00000  0.00000  0.44431  1
 P  P2  1  0.50000  0.50000  0.55569  1
