CIF file written using JARVIS-Tools package.
data_Pr2SbAu3
_symmetry_space_group_name_H-M  'Pmm2'
_cell_length_a       3.74406
_cell_length_b       4.70671
_cell_length_c       8.4374
_cell_angle_alpha    90
_cell_angle_beta     90
_cell_angle_gamma    90

_symmetry_Int_Tables_number  25
_chemical_formula_structural  Pr2SbAu3
_chemical_formula_sum  Pr2SbAu3
_cell_volume  148.68562260131824
_cell_formula_units_Z  1
loop_
  _symmetry_equiv_pos_site_id
 _symmetry_equiv_pos_as_xyz
 1  'x, y, z'
loop_
 _atom_site_type_symbol
 _atom_site_label
 _atom_site_symmetry_multiplicity
 _atom_site_fract_x
 _atom_site_fract_y
 _atom_site_fract_z
 _atom_site_fract_occupancy
 Au  Au1  1  0.50000  0.00000  0.83533  1
 Au  Au2  1  0.50000  0.00000  0.16070  1
 Au  Au3  1  0.50000  0.50000  0.66775  1
 Pr  Pr1  1  0.00000  0.50000  0.98342  1
 Pr  Pr2  1  0.00000  0.00000  0.51902  1
 Sb  Sb1  1  0.50000  0.50000  0.33377  1
