CIF file written using JARVIS-Tools package.
data_PCl2
_symmetry_space_group_name_H-M  'Pmm2'
_cell_length_a       6.68039
_cell_length_b       4.21691
_cell_length_c       3.1881
_cell_angle_alpha    90
_cell_angle_beta     90
_cell_angle_gamma    90

_symmetry_Int_Tables_number  25
_chemical_formula_structural  PCl2
_chemical_formula_sum  PCl2
_cell_volume  89.8108834866589
_cell_formula_units_Z  1
loop_
  _symmetry_equiv_pos_site_id
 _symmetry_equiv_pos_as_xyz
 1  'x, y, z'
loop_
 _atom_site_type_symbol
 _atom_site_label
 _atom_site_symmetry_multiplicity
 _atom_site_fract_x
 _atom_site_fract_y
 _atom_site_fract_z
 _atom_site_fract_occupancy
 Cl  Cl1  1  0.24381  -0.00468  0.00000  1
 Cl  Cl2  1  0.75619  -0.00468  0.00000  1
 P  P1  1  0.00000  0.29736  0.00000  1
