CIF file written using JARVIS-Tools package.
data_LiFeGe2O6
_symmetry_space_group_name_H-M  'C2/c'
_cell_length_a       6.39138
_cell_length_b       6.39138
_cell_length_c       5.14559
_cell_angle_alpha    82.0985
_cell_angle_beta     82.0984
_cell_angle_gamma    84.3321

_symmetry_Int_Tables_number  15
_chemical_formula_structural  LiFeGe2O6
_chemical_formula_sum  Li2Fe2Ge4O2
_cell_volume  205.53901259141116
_cell_formula_units_Z  2
loop_
  _symmetry_equiv_pos_site_id
 _symmetry_equiv_pos_as_xyz
 1  'x, y, z'
loop_
 _atom_site_type_symbol
 _atom_site_label
 _atom_site_symmetry_multiplicity
 _atom_site_fract_x
 _atom_site_fract_y
 _atom_site_fract_z
 _atom_site_fract_occupancy
 Fe  Fe1  1  0.91228  0.08772  0.25000  1
 Fe  Fe2  1  0.08772  0.91228  0.75000  1
 Ge  Ge1  1  0.39910  0.20369  0.29445  1
 Ge  Ge2  1  0.79631  0.60090  0.20555  1
 Ge  Ge3  1  0.60090  0.79631  0.70555  1
 Ge  Ge4  1  0.20369  0.39910  0.79445  1
 Li  Li1  1  0.26885  0.73115  0.25000  1
 Li  Li2  1  0.73115  0.26885  0.75000  1
 O  O1  1  0.97296  0.81047  0.11634  1
 O  O2  1  0.29298  0.43490  0.09960  1
 O  O3  1  0.02704  0.18953  0.88366  1
 O  O4  1  0.81047  0.97296  0.61634  1
 O  O5  1  0.70702  0.56510  0.90040  1
 O  O6  1  0.56510  0.70702  0.40040  1
 O  O7  1  0.12068  0.64328  0.62456  1
 O  O8  1  0.35672  0.87932  0.87544  1
 O  O9  1  0.43490  0.29298  0.59960  1
 O  O10  1  0.64328  0.12068  0.12456  1
 O  O11  1  0.18953  0.02704  0.38366  1
 O  O12  1  0.87932  0.35672  0.37544  1
