CIF file written using JARVIS-Tools package.
data_P2Cl
_symmetry_space_group_name_H-M  'Cm'
_cell_length_a       5.34082
_cell_length_b       3.42031
_cell_length_c       6.54225
_cell_angle_alpha    62.9131
_cell_angle_beta     71.3199
_cell_angle_gamma    38.7039

_symmetry_Int_Tables_number  8
_chemical_formula_structural  P2Cl
_chemical_formula_sum  P2Cl
_cell_volume  66.40005421705868
_cell_formula_units_Z  1
loop_
  _symmetry_equiv_pos_site_id
 _symmetry_equiv_pos_as_xyz
 1  'x, y, z'
loop_
 _atom_site_type_symbol
 _atom_site_label
 _atom_site_symmetry_multiplicity
 _atom_site_fract_x
 _atom_site_fract_y
 _atom_site_fract_z
 _atom_site_fract_occupancy
 Cl  Cl1  1  0.35724  0.14425  0.96852  1
 P  P1  1  0.41846  0.78612  0.32472  1
 P  P2  1  0.82372  0.65760  0.45297  1
