CIF file written using JARVIS-Tools package.
data_CuNO2
_symmetry_space_group_name_H-M  'Imm2'
_cell_length_a       4.00478
_cell_length_b       4.00478
_cell_length_c       4.00478
_cell_angle_alpha    129.965
_cell_angle_beta     90.7458
_cell_angle_gamma    110.161

_symmetry_Int_Tables_number  44
_chemical_formula_structural  CuNO2
_chemical_formula_sum  CuNO2
_cell_volume  43.690318458130704
_cell_formula_units_Z  1
loop_
  _symmetry_equiv_pos_site_id
 _symmetry_equiv_pos_as_xyz
 1  'x, y, z'
loop_
 _atom_site_type_symbol
 _atom_site_label
 _atom_site_symmetry_multiplicity
 _atom_site_fract_x
 _atom_site_fract_y
 _atom_site_fract_z
 _atom_site_fract_occupancy
 Cu  Cu1  1  0.04156  0.04156  0.00000  1
 N  N1  1  0.62465  0.62465  0.00000  1
 O  O1  1  0.65669  0.46690  0.18979  1
 O  O2  1  0.27711  0.46690  0.81021  1
