CIF file written using JARVIS-Tools package.
data_Li3MoP2O8
_symmetry_space_group_name_H-M  'P2_1/c'
_cell_length_a       9.04316
_cell_length_b       4.93433
_cell_length_c       7.78051
_cell_angle_alpha    54.5135
_cell_angle_beta     90
_cell_angle_gamma    90

_symmetry_Int_Tables_number  14
_chemical_formula_structural  Li3MoP2O8
_chemical_formula_sum  Li6Mo2P4O6
_cell_volume  282.6933362729769
_cell_formula_units_Z  2
loop_
  _symmetry_equiv_pos_site_id
 _symmetry_equiv_pos_as_xyz
 1  'x, y, z'
loop_
 _atom_site_type_symbol
 _atom_site_label
 _atom_site_symmetry_multiplicity
 _atom_site_fract_x
 _atom_site_fract_y
 _atom_site_fract_z
 _atom_site_fract_occupancy
 Li  Li1  1  0.00000  0.00000  0.50000  1
 Li  Li2  1  0.13929  0.31448  0.69250  1
 Li  Li3  1  0.86071  0.68552  0.30750  1
 Li  Li4  1  0.63929  0.68552  0.80750  1
 Li  Li5  1  0.36071  0.31448  0.19250  1
 Li  Li6  1  0.50000  0.00000  0.00000  1
 Mo  Mo1  1  0.00000  0.50000  0.00000  1
 Mo  Mo2  1  0.50000  0.50000  0.50000  1
 O  O1  1  0.84614  0.49032  0.79909  1
 O  O2  1  0.15386  0.50968  0.20091  1
 O  O3  1  0.86731  0.86310  0.98771  1
 O  O4  1  0.64625  0.16101  0.75859  1
 O  O5  1  0.13269  0.13690  0.01229  1
 O  O6  1  0.35375  0.83899  0.24141  1
 O  O7  1  0.59967  0.25565  0.09106  1
 O  O8  1  0.63269  0.86310  0.48771  1
 O  O9  1  0.09967  0.74435  0.40894  1
 O  O10  1  0.34614  0.50968  0.70091  1
 O  O11  1  0.36731  0.13690  0.51229  1
 O  O12  1  0.14625  0.83899  0.74141  1
 O  O13  1  0.65386  0.49032  0.29909  1
 O  O14  1  0.40033  0.74435  0.90894  1
 O  O15  1  0.90033  0.25565  0.59106  1
 O  O16  1  0.85375  0.16101  0.25859  1
 P  P1  1  0.81724  0.19618  0.77996  1
 P  P2  1  0.31724  0.80382  0.72004  1
 P  P3  1  0.68276  0.19618  0.27996  1
 P  P4  1  0.18276  0.80382  0.22004  1
