CIF file written using JARVIS-Tools package.
data_PCl3
_symmetry_space_group_name_H-M  'P1'
_cell_length_a       5.94758
_cell_length_b       5.74152
_cell_length_c       4.06454
_cell_angle_alpha    109.247
_cell_angle_beta     110.112
_cell_angle_gamma    104.708

_symmetry_Int_Tables_number  1
_chemical_formula_structural  PCl3
_chemical_formula_sum  PCl3
_cell_volume  111.99425280862543
_cell_formula_units_Z  1
loop_
  _symmetry_equiv_pos_site_id
 _symmetry_equiv_pos_as_xyz
 1  'x, y, z'
loop_
 _atom_site_type_symbol
 _atom_site_label
 _atom_site_symmetry_multiplicity
 _atom_site_fract_x
 _atom_site_fract_y
 _atom_site_fract_z
 _atom_site_fract_occupancy
 Cl  Cl1  1  0.33129  0.91465  0.58548  1
 Cl  Cl2  1  0.66713  0.55570  0.57728  1
 Cl  Cl3  1  -0.03887  0.20014  0.06526  1
 P  P1  1  0.64526  0.88034  -0.02931  1
