CIF file written using JARVIS-Tools package.
data_MnFe2N2
_symmetry_space_group_name_H-M  'P-3m1'
_cell_length_a       2.89559
_cell_length_b       2.89553
_cell_length_c       6.23755
_cell_angle_alpha    90.0011
_cell_angle_beta     89.997
_cell_angle_gamma    119.995

_symmetry_Int_Tables_number  164
_chemical_formula_structural  MnFe2N2
_chemical_formula_sum  MnFe2N2
_cell_volume  45.29330808882215
_cell_formula_units_Z  1
loop_
  _symmetry_equiv_pos_site_id
 _symmetry_equiv_pos_as_xyz
 1  'x, y, z'
loop_
 _atom_site_type_symbol
 _atom_site_label
 _atom_site_symmetry_multiplicity
 _atom_site_fract_x
 _atom_site_fract_y
 _atom_site_fract_z
 _atom_site_fract_occupancy
 Fe  Fe1  1  0.66680  0.33337  0.16633  1
 Fe  Fe2  1  0.33320  0.66665  0.83367  1
 Mn  Mn1  1  0.00000  0.00000  0.50000  1
 N  N1  1  0.66658  0.33331  0.70514  1
 N  N2  1  0.33342  0.66671  0.29486  1
