CIF file written using JARVIS-Tools package.
data_Rb3MnO3
_symmetry_space_group_name_H-M  'P2_1/c'
_cell_length_a       6.87983
_cell_length_b       7.03483
_cell_length_c       11.8222
_cell_angle_alpha    89.9996
_cell_angle_beta     89.9993
_cell_angle_gamma    98.2812

_symmetry_Int_Tables_number  14
_chemical_formula_structural  Rb3MnO3
_chemical_formula_sum  Rb2Mn4O2
_cell_volume  566.2126802519796
_cell_formula_units_Z  4
loop_
  _symmetry_equiv_pos_site_id
 _symmetry_equiv_pos_as_xyz
 1  'x, y, z'
loop_
 _atom_site_type_symbol
 _atom_site_label
 _atom_site_symmetry_multiplicity
 _atom_site_fract_x
 _atom_site_fract_y
 _atom_site_fract_z
 _atom_site_fract_occupancy
 Mn  Mn1  1  0.15808  0.15756  0.99667  1
 Mn  Mn2  1  0.84192  0.84243  0.00333  1
 Mn  Mn3  1  0.84193  0.34243  0.49667  1
 Mn  Mn4  1  0.15808  0.65757  0.50333  1
 O  O1  1  0.70028  0.22531  0.37565  1
 O  O2  1  0.29972  0.77470  0.62435  1
 O  O3  1  0.10066  0.90864  0.07267  1
 O  O4  1  0.89934  0.59137  0.57267  1
 O  O5  1  0.10066  0.40864  0.42733  1
 O  O6  1  0.89934  0.09136  0.92733  1
 O  O7  1  0.27185  0.30151  0.11685  1
 O  O8  1  0.72813  0.19849  0.61685  1
 O  O9  1  0.72814  0.69849  0.88315  1
 O  O10  1  0.27187  0.80151  0.38315  1
 O  O11  1  0.29972  0.27471  0.87566  1
 O  O12  1  0.70027  0.72529  0.12435  1
 Rb  Rb1  1  0.66025  0.35484  0.01252  1
 Rb  Rb2  1  0.66025  0.85484  0.48747  1
 Rb  Rb3  1  0.33976  0.14517  0.51253  1
 Rb  Rb4  1  0.33975  0.64516  0.98748  1
 Rb  Rb5  1  0.47257  0.99633  0.20782  1
 Rb  Rb6  1  0.47255  0.49632  0.29218  1
 Rb  Rb7  1  0.52743  0.00367  0.79218  1
 Rb  Rb8  1  0.52745  0.50368  0.70782  1
 Rb  Rb9  1  0.99049  0.43038  0.77560  1
 Rb  Rb10  1  0.00950  0.56961  0.22440  1
 Rb  Rb11  1  0.99048  0.93038  0.72439  1
 Rb  Rb12  1  0.00952  0.06962  0.27561  1
