CIF file written using JARVIS-Tools package.
data_RbPbCl
_symmetry_space_group_name_H-M  'Pm'
_cell_length_a       5.85513
_cell_length_b       6.11162
_cell_length_c       3.46716
_cell_angle_alpha    90
_cell_angle_beta     90
_cell_angle_gamma    96.1604

_symmetry_Int_Tables_number  6
_chemical_formula_structural  RbPbCl
_chemical_formula_sum  RbPbCl
_cell_volume  123.35365905858363
_cell_formula_units_Z  1
loop_
  _symmetry_equiv_pos_site_id
 _symmetry_equiv_pos_as_xyz
 1  'x, y, z'
loop_
 _atom_site_type_symbol
 _atom_site_label
 _atom_site_symmetry_multiplicity
 _atom_site_fract_x
 _atom_site_fract_y
 _atom_site_fract_z
 _atom_site_fract_occupancy
 Cl  Cl1  1  -0.06568  -0.05100  0.00000  1
 Pb  Pb1  1  0.43558  -0.04746  0.00000  1
 Rb  Rb1  1  -0.05805  0.44978  0.00000  1
