CIF file written using JARVIS-Tools package.
data_GaMoSe4
_symmetry_space_group_name_H-M  'P3m1'
_cell_length_a       3.41132
_cell_length_b       3.41132
_cell_length_c       21.6714
_cell_angle_alpha    90
_cell_angle_beta     90
_cell_angle_gamma    120

_symmetry_Int_Tables_number  156
_chemical_formula_structural  GaMoSe4
_chemical_formula_sum  GaMoSe4
_cell_volume  218.4047525536262
_cell_formula_units_Z  1
loop_
  _symmetry_equiv_pos_site_id
 _symmetry_equiv_pos_as_xyz
 1  'x, y, z'
loop_
 _atom_site_type_symbol
 _atom_site_label
 _atom_site_symmetry_multiplicity
 _atom_site_fract_x
 _atom_site_fract_y
 _atom_site_fract_z
 _atom_site_fract_occupancy
 Ga  Ga1  1  0.33333  0.66667  0.15092  1
 Mo  Mo1  1  0.66667  0.33333  0.45073  1
 Se  Se1  1  0.33333  0.66667  0.52679  1
 Se  Se2  1  0.66667  0.33333  0.07272  1
 Se  Se3  1  0.66667  0.33333  0.22977  1
 Se  Se4  1  0.33333  0.66667  0.37467  1
