CIF file written using JARVIS-Tools package.
data_TiCuS
_symmetry_space_group_name_H-M  'Cmcm'
_cell_length_a       4.97884
_cell_length_b       4.97884
_cell_length_c       5.77549
_cell_angle_alpha    90
_cell_angle_beta     90
_cell_angle_gamma    142.58

_symmetry_Int_Tables_number  63
_chemical_formula_structural  TiCuS
_chemical_formula_sum  Ti2Cu2S2
_cell_volume  86.99746521905035
_cell_formula_units_Z  2
loop_
  _symmetry_equiv_pos_site_id
 _symmetry_equiv_pos_as_xyz
 1  'x, y, z'
loop_
 _atom_site_type_symbol
 _atom_site_label
 _atom_site_symmetry_multiplicity
 _atom_site_fract_x
 _atom_site_fract_y
 _atom_site_fract_z
 _atom_site_fract_occupancy
 Cu  Cu1  1  0.31728  0.68272  0.25000  1
 Cu  Cu2  1  0.68272  0.31728  0.75000  1
 S  S1  1  0.36750  0.63250  0.75000  1
 S  S2  1  0.63250  0.36750  0.25000  1
 Ti  Ti1  1  0.00000  0.00000  0.50000  1
 Ti  Ti2  1  0.00000  0.00000  0.00000  1
