CIF file written using JARVIS-Tools package.
data_Rb2MoI6O18
_symmetry_space_group_name_H-M  'R-3'
_cell_length_a       7.61508
_cell_length_b       7.61509
_cell_length_c       7.61508
_cell_angle_alpha    97.7815
_cell_angle_beta     97.7815
_cell_angle_gamma    97.7815

_symmetry_Int_Tables_number  148
_chemical_formula_structural  Rb2MoI6O18
_chemical_formula_sum  Rb2MoI6O8
_cell_volume  428.15164574223974
_cell_formula_units_Z  1
loop_
  _symmetry_equiv_pos_site_id
 _symmetry_equiv_pos_as_xyz
 1  'x, y, z'
loop_
 _atom_site_type_symbol
 _atom_site_label
 _atom_site_symmetry_multiplicity
 _atom_site_fract_x
 _atom_site_fract_y
 _atom_site_fract_z
 _atom_site_fract_occupancy
 I  I1  1  0.70650  0.12307  0.34073  1
 I  I2  1  0.65927  0.29350  0.87693  1
 I  I3  1  0.29350  0.87693  0.65927  1
 I  I4  1  0.12307  0.34073  0.70650  1
 I  I5  1  0.34073  0.70650  0.12307  1
 I  I6  1  0.87693  0.65927  0.29350  1
 Mo  Mo1  1  0.50000  0.50000  0.50000  1
 O  O1  1  0.68785  0.07274  0.09657  1
 O  O2  1  0.91122  0.29352  0.39354  1
 O  O3  1  0.09657  0.68785  0.07274  1
 O  O4  1  0.08878  0.70648  0.60646  1
 O  O5  1  0.44626  0.69530  0.67896  1
 O  O6  1  0.90343  0.31215  0.92726  1
 O  O7  1  0.32104  0.55374  0.30470  1
 O  O8  1  0.29352  0.39354  0.91122  1
 O  O9  1  0.55374  0.30470  0.32104  1
 O  O10  1  0.31215  0.92726  0.90343  1
 O  O11  1  0.39354  0.91122  0.29352  1
 O  O12  1  0.60646  0.08878  0.70648  1
 O  O13  1  0.67896  0.44626  0.69530  1
 O  O14  1  0.69530  0.67896  0.44626  1
 O  O15  1  0.92726  0.90343  0.31215  1
 O  O16  1  0.30470  0.32104  0.55374  1
 O  O17  1  0.07274  0.09657  0.68785  1
 O  O18  1  0.70648  0.60646  0.08878  1
 Rb  Rb1  1  0.83324  0.83324  0.83324  1
 Rb  Rb2  1  0.16676  0.16676  0.16676  1
