CIF file written using JARVIS-Tools package.
data_VAgO3
_symmetry_space_group_name_H-M  'Cm'
_cell_length_a       9.21136
_cell_length_b       9.21136
_cell_length_c       8.05637
_cell_angle_alpha    76.0206
_cell_angle_beta     76.0206
_cell_angle_gamma    22.4254

_symmetry_Int_Tables_number  8
_chemical_formula_structural  VAgO3
_chemical_formula_sum  V4Ag4O2
_cell_volume  252.7386371676216
_cell_formula_units_Z  4
loop_
  _symmetry_equiv_pos_site_id
 _symmetry_equiv_pos_as_xyz
 1  'x, y, z'
loop_
 _atom_site_type_symbol
 _atom_site_label
 _atom_site_symmetry_multiplicity
 _atom_site_fract_x
 _atom_site_fract_y
 _atom_site_fract_z
 _atom_site_fract_occupancy
 Ag  Ag1  1  0.25218  0.25218  0.04138  1
 Ag  Ag2  1  0.00052  0.00052  0.50105  1
 Ag  Ag3  1  0.45247  0.45247  0.86596  1
 Ag  Ag4  1  0.55023  0.55023  0.13005  1
 O  O1  1  0.19204  0.19204  0.49602  1
 O  O2  1  0.65169  0.65169  0.70592  1
 O  O3  1  0.03645  0.03645  0.75850  1
 O  O4  1  0.40879  0.40879  0.59995  1
 O  O5  1  0.12132  0.12132  0.98560  1
 O  O6  1  0.74072  0.74072  0.23134  1
 O  O7  1  0.88147  0.88147  0.01188  1
 O  O8  1  0.59241  0.59241  0.39841  1
 O  O9  1  0.25995  0.25995  0.76071  1
 O  O10  1  0.35100  0.35100  0.28697  1
 O  O11  1  0.96729  0.96729  0.23994  1
 O  O12  1  0.81125  0.81125  0.49464  1
 V  V1  1  0.13067  0.13067  0.76912  1
 V  V2  1  0.68040  0.68040  0.43324  1
 V  V3  1  0.87346  0.87346  0.22786  1
 V  V4  1  0.32086  0.32086  0.56414  1
