CIF file written using JARVIS-Tools package.
data_RbPdCl
_symmetry_space_group_name_H-M  'Amm2'
_cell_length_a       4.58114
_cell_length_b       6.05295
_cell_length_c       3.67867
_cell_angle_alpha    90
_cell_angle_beta     90
_cell_angle_gamma    112.144

_symmetry_Int_Tables_number  38
_chemical_formula_structural  RbPdCl
_chemical_formula_sum  RbPdCl
_cell_volume  94.48298403157443
_cell_formula_units_Z  1
loop_
  _symmetry_equiv_pos_site_id
 _symmetry_equiv_pos_as_xyz
 1  'x, y, z'
loop_
 _atom_site_type_symbol
 _atom_site_label
 _atom_site_symmetry_multiplicity
 _atom_site_fract_x
 _atom_site_fract_y
 _atom_site_fract_z
 _atom_site_fract_occupancy
 Cl  Cl1  1  0.38827  0.00224  0.00000  1
 Pd  Pd1  1  -0.16928  -0.11322  0.00000  1
 Rb  Rb1  1  0.10881  0.44254  0.00000  1
