CIF file written using JARVIS-Tools package.
data_YbCe3
_symmetry_space_group_name_H-M  'P6_3/mmc'
_cell_length_a       6.74861
_cell_length_b       6.74861
_cell_length_c       5.71308
_cell_angle_alpha    90
_cell_angle_beta     90
_cell_angle_gamma    120

_symmetry_Int_Tables_number  194
_chemical_formula_structural  YbCe3
_chemical_formula_sum  Yb2Ce6
_cell_volume  225.33551690218937
_cell_formula_units_Z  2
loop_
  _symmetry_equiv_pos_site_id
 _symmetry_equiv_pos_as_xyz
 1  'x, y, z'
loop_
 _atom_site_type_symbol
 _atom_site_label
 _atom_site_symmetry_multiplicity
 _atom_site_fract_x
 _atom_site_fract_y
 _atom_site_fract_z
 _atom_site_fract_occupancy
 Ce  Ce1  1  0.14713  0.29427  0.25000  1
 Ce  Ce2  1  0.70573  0.85287  0.25000  1
 Ce  Ce3  1  0.14713  0.85287  0.25000  1
 Ce  Ce4  1  0.85287  0.70573  0.75000  1
 Ce  Ce5  1  0.29427  0.14713  0.75000  1
 Ce  Ce6  1  0.85287  0.14713  0.75000  1
 Yb  Yb1  1  0.33333  0.66667  0.75000  1
 Yb  Yb2  1  0.66667  0.33333  0.25000  1
