CIF file written using JARVIS-Tools package.
data_MnHO2
_symmetry_space_group_name_H-M  'Pnma'
_cell_length_a       3.00539
_cell_length_b       4.5466
_cell_length_c       10.1645
_cell_angle_alpha    89.9999
_cell_angle_beta     90
_cell_angle_gamma    90

_symmetry_Int_Tables_number  62
_chemical_formula_structural  MnHO2
_chemical_formula_sum  Mn4H4O8
_cell_volume  138.8908968577983
_cell_formula_units_Z  4
loop_
  _symmetry_equiv_pos_site_id
 _symmetry_equiv_pos_as_xyz
 1  'x, y, z'
loop_
 _atom_site_type_symbol
 _atom_site_label
 _atom_site_symmetry_multiplicity
 _atom_site_fract_x
 _atom_site_fract_y
 _atom_site_fract_z
 _atom_site_fract_occupancy
 H  H1  1  0.25000  0.90512  0.40557  1
 H  H2  1  0.25000  0.59487  0.90557  1
 H  H3  1  0.75000  0.09488  0.59443  1
 H  H4  1  0.75000  0.40513  0.09443  1
 Mn  Mn1  1  0.25000  0.94540  0.14103  1
 Mn  Mn2  1  0.75000  0.05460  0.85897  1
 Mn  Mn3  1  0.25000  0.55460  0.64103  1
 Mn  Mn4  1  0.75000  0.44539  0.35897  1
 O  O1  1  0.25000  0.20029  0.30275  1
 O  O2  1  0.25000  0.29972  0.80275  1
 O  O3  1  0.75000  0.79972  0.69725  1
 O  O4  1  0.75000  0.70029  0.19724  1
 O  O5  1  0.25000  0.69841  0.44150  1
 O  O6  1  0.25000  0.80159  0.94150  1
 O  O7  1  0.75000  0.30159  0.55850  1
 O  O8  1  0.75000  0.19841  0.05850  1
