CIF file written using JARVIS-Tools package.
data_CrOF
_symmetry_space_group_name_H-M  'Pmmn'
_cell_length_a       3.01595
_cell_length_b       11.2433
_cell_length_c       3.88314
_cell_angle_alpha    90
_cell_angle_beta     90
_cell_angle_gamma    90.0001

_symmetry_Int_Tables_number  59
_chemical_formula_structural  CrOF
_chemical_formula_sum  Cr4O4F4
_cell_volume  131.67403099648288
_cell_formula_units_Z  4
loop_
  _symmetry_equiv_pos_site_id
 _symmetry_equiv_pos_as_xyz
 1  'x, y, z'
loop_
 _atom_site_type_symbol
 _atom_site_label
 _atom_site_symmetry_multiplicity
 _atom_site_fract_x
 _atom_site_fract_y
 _atom_site_fract_z
 _atom_site_fract_occupancy
 Cr  Cr1  1  0.25000  0.57738  0.25000  1
 Cr  Cr2  1  0.75000  0.42262  0.75000  1
 Cr  Cr3  1  0.25000  0.07738  0.25000  1
 Cr  Cr4  1  0.75000  0.92262  0.75000  1
 F  F1  1  0.75000  0.18827  0.25000  1
 F  F2  1  0.75000  0.68827  0.25000  1
 F  F3  1  0.25000  0.31173  0.75000  1
 F  F4  1  0.25000  0.81173  0.75000  1
 O  O1  1  0.75000  0.46056  0.25000  1
 O  O2  1  0.75000  0.96056  0.25000  1
 O  O3  1  0.25000  0.03944  0.75000  1
 O  O4  1  0.25000  0.53944  0.75000  1
