CIF file written using JARVIS-Tools package.
data_LaNi3B
_symmetry_space_group_name_H-M  'Imma'
_cell_length_a       6.0071
_cell_length_b       6.00709
_cell_length_c       6.00709
_cell_angle_alpha    131.331
_cell_angle_beta     107.346
_cell_angle_gamma    92.3755

_symmetry_Int_Tables_number  74
_chemical_formula_structural  LaNi3B
_chemical_formula_sum  La2Ni6B2
_cell_volume  146.5276751091017
_cell_formula_units_Z  2
loop_
  _symmetry_equiv_pos_site_id
 _symmetry_equiv_pos_as_xyz
 1  'x, y, z'
loop_
 _atom_site_type_symbol
 _atom_site_label
 _atom_site_symmetry_multiplicity
 _atom_site_fract_x
 _atom_site_fract_y
 _atom_site_fract_z
 _atom_site_fract_occupancy
 B  B1  1  0.38116  0.13116  0.25000  1
 B  B2  1  0.61884  0.86884  0.75000  1
 La  La1  1  0.82229  0.57229  0.25000  1
 La  La2  1  0.17771  0.42771  0.75000  1
 Ni  Ni1  1  0.32280  0.50000  0.32280  1
 Ni  Ni2  1  0.67720  0.50000  0.67720  1
 Ni  Ni3  1  0.67720  0.00000  0.17720  1
 Ni  Ni4  1  0.32280  -0.00000  0.82280  1
 Ni  Ni5  1  0.00000  0.00000  0.00000  1
 Ni  Ni6  1  0.50000  0.00000  0.50000  1
