CIF file written using JARVIS-Tools package.
data_ZrNiH
_symmetry_space_group_name_H-M  'Cmcm'
_cell_length_a       5.56639
_cell_length_b       5.5664
_cell_length_c       3.88487
_cell_angle_alpha    90
_cell_angle_beta     90
_cell_angle_gamma    144.395

_symmetry_Int_Tables_number  63
_chemical_formula_structural  ZrNiH
_chemical_formula_sum  Zr2Ni2H2
_cell_volume  70.0790303120544
_cell_formula_units_Z  2
loop_
  _symmetry_equiv_pos_site_id
 _symmetry_equiv_pos_as_xyz
 1  'x, y, z'
loop_
 _atom_site_type_symbol
 _atom_site_label
 _atom_site_symmetry_multiplicity
 _atom_site_fract_x
 _atom_site_fract_y
 _atom_site_fract_z
 _atom_site_fract_occupancy
 H  H1  1  0.76401  0.23599  0.75000  1
 H  H2  1  0.23599  0.76401  0.25000  1
 Ni  Ni1  1  0.43178  0.56822  0.75000  1
 Ni  Ni2  1  0.56822  0.43178  0.25000  1
 Zr  Zr1  1  0.14264  0.85736  0.75000  1
 Zr  Zr2  1  0.85736  0.14264  0.25000  1
