CIF file written using JARVIS-Tools package.
data_Mn6O5F7
_symmetry_space_group_name_H-M  'P1'
_cell_length_a       5.48419
_cell_length_b       5.62104
_cell_length_c       7.19968
_cell_angle_alpha    74.5328
_cell_angle_beta     74.7828
_cell_angle_gamma    72.6442

_symmetry_Int_Tables_number  1
_chemical_formula_structural  Mn6O5F7
_chemical_formula_sum  Mn6O5F7
_cell_volume  200.0890007063306
_cell_formula_units_Z  1
loop_
  _symmetry_equiv_pos_site_id
 _symmetry_equiv_pos_as_xyz
 1  'x, y, z'
loop_
 _atom_site_type_symbol
 _atom_site_label
 _atom_site_symmetry_multiplicity
 _atom_site_fract_x
 _atom_site_fract_y
 _atom_site_fract_z
 _atom_site_fract_occupancy
 F  F1  1  0.68169  0.29706  0.02420  1
 F  F2  1  0.60166  0.05615  0.66392  1
 F  F3  1  0.06510  0.12369  0.69510  1
 F  F4  1  0.59250  0.56709  0.64619  1
 F  F5  1  0.91027  0.86150  0.30873  1
 F  F6  1  0.38969  0.93409  0.32968  1
 F  F7  1  0.33462  0.71698  0.99059  1
 Mn  Mn1  1  0.70780  0.67648  0.83840  1
 Mn  Mn2  1  0.00867  0.00839  0.00182  1
 Mn  Mn3  1  0.99469  0.99561  0.49593  1
 Mn  Mn4  1  0.30357  0.33344  0.17247  1
 Mn  Mn5  1  0.67246  0.61468  0.30642  1
 Mn  Mn6  1  0.30993  0.36707  0.66841  1
 O  O1  1  0.96295  0.32736  0.32624  1
 O  O2  1  0.21720  0.24773  0.95666  1
 O  O3  1  0.03303  0.66711  0.66792  1
 O  O4  1  0.41026  0.42955  0.38106  1
 O  O5  1  0.80389  0.77601  0.02625  1
