CIF file written using JARVIS-Tools package.
data_GeHO
_symmetry_space_group_name_H-M  'Pmmn'
_cell_length_a       3.08508
_cell_length_b       3.86824
_cell_length_c       5.40002
_cell_angle_alpha    90
_cell_angle_beta     90
_cell_angle_gamma    90

_symmetry_Int_Tables_number  59
_chemical_formula_structural  GeHO
_chemical_formula_sum  Ge2H2O2
_cell_volume  64.44297776533365
_cell_formula_units_Z  2
loop_
  _symmetry_equiv_pos_site_id
 _symmetry_equiv_pos_as_xyz
 1  'x, y, z'
loop_
 _atom_site_type_symbol
 _atom_site_label
 _atom_site_symmetry_multiplicity
 _atom_site_fract_x
 _atom_site_fract_y
 _atom_site_fract_z
 _atom_site_fract_occupancy
 Ge  Ge1  1  0.50000  0.00000  0.69962  1
 Ge  Ge2  1  0.00000  0.50000  0.30038  1
 H  H1  1  0.00000  0.00000  0.86967  1
 H  H2  1  0.50000  0.50000  0.13032  1
 O  O1  1  0.00000  0.00000  0.42074  1
 O  O2  1  0.50000  0.50000  0.57926  1
