CIF file written using JARVIS-Tools package.
data_Li5VF8
_symmetry_space_group_name_H-M  'Immm'
_cell_length_a       5.87662
_cell_length_b       5.87662
_cell_length_c       5.87662
_cell_angle_alpha    122.533
_cell_angle_beta     120.606
_cell_angle_gamma    87.311

_symmetry_Int_Tables_number  71
_chemical_formula_structural  Li5VF8
_chemical_formula_sum  Li5VF8
_cell_volume  139.88147874272818
_cell_formula_units_Z  1
loop_
  _symmetry_equiv_pos_site_id
 _symmetry_equiv_pos_as_xyz
 1  'x, y, z'
loop_
 _atom_site_type_symbol
 _atom_site_label
 _atom_site_symmetry_multiplicity
 _atom_site_fract_x
 _atom_site_fract_y
 _atom_site_fract_z
 _atom_site_fract_occupancy
 F  F1  1  0.23465  0.23465  -0.00000  1
 F  F2  1  0.23963  0.76720  0.00682  1
 F  F3  1  0.76037  0.23280  0.99318  1
 F  F4  1  0.76535  0.76535  -0.00000  1
 F  F5  1  0.76037  0.76720  0.52757  1
 F  F6  1  0.72968  0.22968  0.50000  1
 F  F7  1  0.27032  0.77032  0.50000  1
 F  F8  1  0.23963  0.23280  0.47243  1
 Li  Li1  1  -0.00000  0.50000  -0.00000  1
 Li  Li2  1  0.50000  0.00000  -0.00000  1
 Li  Li3  1  0.50000  0.50000  0.50000  1
 Li  Li4  1  0.50000  0.00000  0.50000  1
 Li  Li5  1  -0.00000  0.00000  0.50000  1
 V  V1  1  0.00000  0.00000  0.00000  1
