CIF file written using JARVIS-Tools package.
data_LiCoF4
_symmetry_space_group_name_H-M  'C2/m'
_cell_length_a       3.05996
_cell_length_b       4.50737
_cell_length_c       4.5073
_cell_angle_alpha    87.0467
_cell_angle_beta     87.9741
_cell_angle_gamma    87.9711

_symmetry_Int_Tables_number  12
_chemical_formula_structural  LiCoF4
_chemical_formula_sum  LiCoF4
_cell_volume  62.00987321904249
_cell_formula_units_Z  1
loop_
  _symmetry_equiv_pos_site_id
 _symmetry_equiv_pos_as_xyz
 1  'x, y, z'
loop_
 _atom_site_type_symbol
 _atom_site_label
 _atom_site_symmetry_multiplicity
 _atom_site_fract_x
 _atom_site_fract_y
 _atom_site_fract_z
 _atom_site_fract_occupancy
 Co  Co1  1  0.50000  0.50000  0.50000  1
 F  F1  1  0.97650  0.30908  0.30939  1
 F  F2  1  0.50003  0.79063  0.20900  1
 F  F3  1  0.49997  0.20937  0.79100  1
 F  F4  1  0.02349  0.69092  0.69061  1
 Li  Li1  1  0.00000  0.00000  0.00000  1
