CIF file written using JARVIS-Tools package.
data_LiV3O2F6
_symmetry_space_group_name_H-M  'P-1'
_cell_length_a       5.11761
_cell_length_b       7.05528
_cell_length_c       7.38106
_cell_angle_alpha    78.6401
_cell_angle_beta     89.442
_cell_angle_gamma    89.5875

_symmetry_Int_Tables_number  2
_chemical_formula_structural  LiV3O2F6
_chemical_formula_sum  Li2V6O4F2
_cell_volume  261.26481950267146
_cell_formula_units_Z  2
loop_
  _symmetry_equiv_pos_site_id
 _symmetry_equiv_pos_as_xyz
 1  'x, y, z'
loop_
 _atom_site_type_symbol
 _atom_site_label
 _atom_site_symmetry_multiplicity
 _atom_site_fract_x
 _atom_site_fract_y
 _atom_site_fract_z
 _atom_site_fract_occupancy
 F  F1  1  0.57733  0.07319  0.80815  1
 F  F2  1  0.92095  0.57784  0.81254  1
 F  F3  1  0.42631  0.68844  0.92795  1
 F  F4  1  0.40715  0.20238  0.42792  1
 F  F5  1  0.59285  0.79762  0.57208  1
 F  F6  1  0.57369  0.31156  0.07205  1
 F  F7  1  0.07905  0.42216  0.18746  1
 F  F8  1  0.09119  0.68391  0.42832  1
 F  F9  1  0.94112  0.80682  0.08292  1
 F  F10  1  0.42267  0.92681  0.19185  1
 F  F11  1  0.05888  0.19318  0.91708  1
 F  F12  1  0.90881  0.31609  0.57168  1
 Li  Li1  1  0.22784  0.16650  0.16513  1
 Li  Li2  1  0.77216  0.83350  0.83487  1
 O  O1  1  0.40842  0.42769  0.70109  1
 O  O2  1  0.86512  0.07011  0.31557  1
 O  O3  1  0.59158  0.57231  0.29891  1
 O  O4  1  0.13488  0.92989  0.68443  1
 V  V1  1  0.72022  0.33437  0.81931  1
 V  V2  1  0.24334  0.17336  0.67767  1
 V  V3  1  0.74624  0.31662  0.31640  1
 V  V4  1  0.25376  0.68338  0.68360  1
 V  V5  1  0.75666  0.82664  0.32233  1
 V  V6  1  0.27978  0.66563  0.18069  1
