CIF file written using JARVIS-Tools package.
data_SbPd6S
_symmetry_space_group_name_H-M  'R-3m'
_cell_length_a       7.67577
_cell_length_b       7.67577
_cell_length_c       7.67577
_cell_angle_alpha    34.3751
_cell_angle_beta     34.3751
_cell_angle_gamma    34.3751

_symmetry_Int_Tables_number  166
_chemical_formula_structural  SbPd6S
_chemical_formula_sum  SbPd6S
_cell_volume  128.58601294638171
_cell_formula_units_Z  1
loop_
  _symmetry_equiv_pos_site_id
 _symmetry_equiv_pos_as_xyz
 1  'x, y, z'
loop_
 _atom_site_type_symbol
 _atom_site_label
 _atom_site_symmetry_multiplicity
 _atom_site_fract_x
 _atom_site_fract_y
 _atom_site_fract_z
 _atom_site_fract_occupancy
 Pd  Pd1  1  0.63078  0.63078  0.63078  1
 Pd  Pd2  1  0.11586  0.11586  0.11586  1
 Pd  Pd3  1  0.88414  0.88414  0.88414  1
 Pd  Pd4  1  0.36922  0.36922  0.36922  1
 Pd  Pd5  1  0.24338  0.24338  0.24338  1
 Pd  Pd6  1  0.75662  0.75662  0.75662  1
 S  S1  1  0.00000  0.00000  0.00000  1
 Sb  Sb1  1  0.50000  0.50000  0.50000  1
