CIF file written using JARVIS-Tools package.
data_SmGaSi
_symmetry_space_group_name_H-M  'I4_1md'
_cell_length_a       7.7085
_cell_length_b       7.7085
_cell_length_c       7.7085
_cell_angle_alpha    148.596
_cell_angle_beta     148.596
_cell_angle_gamma    45.0063

_symmetry_Int_Tables_number  109
_chemical_formula_structural  SmGaSi
_chemical_formula_sum  Sm2Ga2Si2
_cell_volume  123.97657166087154
_cell_formula_units_Z  2
loop_
  _symmetry_equiv_pos_site_id
 _symmetry_equiv_pos_as_xyz
 1  'x, y, z'
loop_
 _atom_site_type_symbol
 _atom_site_label
 _atom_site_symmetry_multiplicity
 _atom_site_fract_x
 _atom_site_fract_y
 _atom_site_fract_z
 _atom_site_fract_occupancy
 Ga  Ga1  1  0.45832  0.45832  -0.00000  1
 Ga  Ga2  1  0.20832  0.70832  0.50000  1
 Si  Si1  1  0.04174  0.54174  0.50000  1
 Si  Si2  1  0.29174  0.29174  0.00000  1
 Sm  Sm1  1  0.62494  0.12494  0.50000  1
 Sm  Sm2  1  0.87494  0.87494  -0.00000  1
