CIF file written using JARVIS-Tools package.
data_LiV3Zn2O8
_symmetry_space_group_name_H-M  'R-3m'
_cell_length_a       5.93721
_cell_length_b       5.93721
_cell_length_c       5.9372
_cell_angle_alpha    59.0888
_cell_angle_beta     59.0888
_cell_angle_gamma    59.0888

_symmetry_Int_Tables_number  166
_chemical_formula_structural  LiV3Zn2O8
_chemical_formula_sum  LiV3Zn2O8
_cell_volume  144.91551526913943
_cell_formula_units_Z  1
loop_
  _symmetry_equiv_pos_site_id
 _symmetry_equiv_pos_as_xyz
 1  'x, y, z'
loop_
 _atom_site_type_symbol
 _atom_site_label
 _atom_site_symmetry_multiplicity
 _atom_site_fract_x
 _atom_site_fract_y
 _atom_site_fract_z
 _atom_site_fract_occupancy
 Li  Li1  1  0.50000  0.50000  0.50000  1
 O  O1  1  0.74252  0.74252  0.74252  1
 O  O2  1  0.28571  0.74760  0.74760  1
 O  O3  1  0.71429  0.25240  0.25240  1
 O  O4  1  0.25240  0.25240  0.71429  1
 O  O5  1  0.25240  0.71429  0.25240  1
 O  O6  1  0.25748  0.25748  0.25748  1
 O  O7  1  0.74760  0.28571  0.74760  1
 O  O8  1  0.74760  0.74760  0.28571  1
 V  V1  1  0.50000  0.50000  -0.00000  1
 V  V2  1  0.50000  0.00000  0.50000  1
 V  V3  1  -0.00000  0.50000  0.50000  1
 Zn  Zn1  1  0.12199  0.12199  0.12199  1
 Zn  Zn2  1  0.87801  0.87801  0.87801  1
