CIF file written using JARVIS-Tools package.
data_Li2Mn2SnO6
_symmetry_space_group_name_H-M  'Cmce'
_cell_length_a       5.24376
_cell_length_b       5.24377
_cell_length_c       10.1258
_cell_angle_alpha    90
_cell_angle_beta     90
_cell_angle_gamma    115.913

_symmetry_Int_Tables_number  64
_chemical_formula_structural  Li2Mn2SnO6
_chemical_formula_sum  Li4Mn4Sn2O2
_cell_volume  250.43780370550112
_cell_formula_units_Z  2
loop_
  _symmetry_equiv_pos_site_id
 _symmetry_equiv_pos_as_xyz
 1  'x, y, z'
loop_
 _atom_site_type_symbol
 _atom_site_label
 _atom_site_symmetry_multiplicity
 _atom_site_fract_x
 _atom_site_fract_y
 _atom_site_fract_z
 _atom_site_fract_occupancy
 Li  Li1  1  0.10241  0.60241  0.75000  1
 Li  Li2  1  0.39759  0.89759  0.25000  1
 Li  Li3  1  0.60241  0.10241  0.75000  1
 Li  Li4  1  0.89759  0.39759  0.25000  1
 Mn  Mn1  1  0.33751  0.66250  -0.00000  1
 Mn  Mn2  1  0.83750  0.16249  0.50000  1
 Mn  Mn3  1  0.16250  0.83750  0.50000  1
 Mn  Mn4  1  0.66249  0.33750  0.00000  1
 O  O1  1  0.80398  0.43995  0.61367  1
 O  O2  1  0.34117  0.34117  0.09240  1
 O  O3  1  0.65883  0.65883  0.90760  1
 O  O4  1  0.84117  0.84117  0.40760  1
 O  O5  1  0.15883  0.15883  0.59240  1
 O  O6  1  0.93995  0.30399  0.88633  1
 O  O7  1  0.56005  0.19602  0.38633  1
 O  O8  1  0.43995  0.80398  0.61367  1
 O  O9  1  0.30398  0.93995  0.88633  1
 O  O10  1  0.06005  0.69602  0.11367  1
 O  O11  1  0.19602  0.56005  0.38633  1
 O  O12  1  0.69602  0.06005  0.11367  1
 Sn  Sn1  1  0.50000  0.50000  0.50000  1
 Sn  Sn2  1  -0.00000  -0.00000  0.00000  1
