CIF file written using JARVIS-Tools package.
data_Nb2CN
_symmetry_space_group_name_H-M  'R-3m'
_cell_length_a       5.51712
_cell_length_b       5.51712
_cell_length_c       5.51712
_cell_angle_alpha    33.5065
_cell_angle_beta     33.5064
_cell_angle_gamma    33.5064

_symmetry_Int_Tables_number  166
_chemical_formula_structural  Nb2CN
_chemical_formula_sum  Nb2CN
_cell_volume  45.57943675259033
_cell_formula_units_Z  1
loop_
  _symmetry_equiv_pos_site_id
 _symmetry_equiv_pos_as_xyz
 1  'x, y, z'
loop_
 _atom_site_type_symbol
 _atom_site_label
 _atom_site_symmetry_multiplicity
 _atom_site_fract_x
 _atom_site_fract_y
 _atom_site_fract_z
 _atom_site_fract_occupancy
 C  C1  1  0.00000  0.00000  0.00000  1
 N  N1  1  0.50000  0.50000  0.50000  1
 Nb  Nb1  1  0.25621  0.25621  0.25621  1
 Nb  Nb2  1  0.74379  0.74379  0.74379  1
