CIF file written using JARVIS-Tools package.
data_CrH2O2
_symmetry_space_group_name_H-M  'C2/m'
_cell_length_a       3.26119
_cell_length_b       3.26119
_cell_length_c       4.59075
_cell_angle_alpha    89.9032
_cell_angle_beta     89.9032
_cell_angle_gamma    63.3673

_symmetry_Int_Tables_number  12
_chemical_formula_structural  CrH2O2
_chemical_formula_sum  CrH2O2
_cell_volume  43.64393424697775
_cell_formula_units_Z  1
loop_
  _symmetry_equiv_pos_site_id
 _symmetry_equiv_pos_as_xyz
 1  'x, y, z'
loop_
 _atom_site_type_symbol
 _atom_site_label
 _atom_site_symmetry_multiplicity
 _atom_site_fract_x
 _atom_site_fract_y
 _atom_site_fract_z
 _atom_site_fract_occupancy
 Cr  Cr1  1  0.00000  0.00000  0.00000  1
 H  H1  1  0.32285  0.32285  0.56640  1
 H  H2  1  0.67715  0.67715  0.43360  1
 O  O1  1  0.32878  0.32878  0.78029  1
 O  O2  1  0.67122  0.67122  0.21971  1
