CIF file written using JARVIS-Tools package.
data_Fe6O7F5
_symmetry_space_group_name_H-M  'P1'
_cell_length_a       4.50862
_cell_length_b       7.45528
_cell_length_c       5.41392
_cell_angle_alpha    94.4405
_cell_angle_beta     89.4443
_cell_angle_gamma    90.6302

_symmetry_Int_Tables_number  1
_chemical_formula_structural  Fe6O7F5
_chemical_formula_sum  Fe6O7F5
_cell_volume  181.41382542332568
_cell_formula_units_Z  1
loop_
  _symmetry_equiv_pos_site_id
 _symmetry_equiv_pos_as_xyz
 1  'x, y, z'
loop_
 _atom_site_type_symbol
 _atom_site_label
 _atom_site_symmetry_multiplicity
 _atom_site_fract_x
 _atom_site_fract_y
 _atom_site_fract_z
 _atom_site_fract_occupancy
 F  F1  1  0.18726  0.57464  0.37601  1
 F  F2  1  0.27673  0.57672  0.87190  1
 F  F3  1  0.72634  0.09893  0.80646  1
 F  F4  1  0.21568  0.22117  0.02370  1
 F  F5  1  0.29229  0.88885  0.18689  1
 Fe  Fe1  1  0.55032  0.65181  0.18405  1
 Fe  Fe2  1  0.96803  0.31614  0.35496  1
 Fe  Fe3  1  0.97340  0.68869  0.67327  1
 Fe  Fe4  1  0.51221  0.34102  0.81484  1
 Fe  Fe5  1  0.49431  0.00508  0.50161  1
 Fe  Fe6  1  0.00056  0.98502  -0.00604  1
 O  O1  1  0.20024  0.90362  0.70054  1
 O  O2  1  0.30126  0.23511  0.53121  1
 O  O3  1  0.80783  0.08722  0.28424  1
 O  O4  1  0.80117  0.77139  0.96347  1
 O  O5  1  0.79614  0.45542  0.63391  1
 O  O6  1  0.69505  0.77860  0.47516  1
 O  O7  1  0.70117  0.42057  0.12381  1
