CIF file written using JARVIS-Tools package.
data_Li3FePCO7
_symmetry_space_group_name_H-M  'Pmn2_1'
_cell_length_a       4.93156
_cell_length_b       6.27974
_cell_length_c       8.59531
_cell_angle_alpha    90
_cell_angle_beta     90
_cell_angle_gamma    90

_symmetry_Int_Tables_number  31
_chemical_formula_structural  Li3FePCO7
_chemical_formula_sum  Li6Fe2P2C2O4
_cell_volume  266.18750062626543
_cell_formula_units_Z  2
loop_
  _symmetry_equiv_pos_site_id
 _symmetry_equiv_pos_as_xyz
 1  'x, y, z'
loop_
 _atom_site_type_symbol
 _atom_site_label
 _atom_site_symmetry_multiplicity
 _atom_site_fract_x
 _atom_site_fract_y
 _atom_site_fract_z
 _atom_site_fract_occupancy
 C  C1  1  0.94775  0.00000  0.96802  1
 C  C2  1  0.44775  0.50000  0.03198  1
 Fe  Fe1  1  0.51918  0.50000  0.35910  1
 Fe  Fe2  1  0.01918  0.00000  0.64090  1
 Li  Li1  1  0.52168  0.26026  0.73414  1
 Li  Li2  1  0.52168  0.73974  0.73414  1
 Li  Li3  1  0.91007  0.50000  0.92707  1
 Li  Li4  1  0.41007  0.00000  0.07293  1
 Li  Li5  1  0.02168  0.76026  0.26586  1
 Li  Li6  1  0.02168  0.23974  0.26586  1
 O  O1  1  0.50383  0.50000  0.88393  1
 O  O2  1  0.70089  0.00000  0.91888  1
 O  O3  1  0.43310  0.00000  0.58868  1
 O  O4  1  0.91626  0.69454  0.67533  1
 O  O5  1  0.91626  0.30546  0.67533  1
 O  O6  1  0.15374  0.00000  0.87307  1
 O  O7  1  0.20089  0.50000  0.08112  1
 O  O8  1  0.93310  0.50000  0.41132  1
 O  O9  1  0.41626  0.19454  0.32467  1
 O  O10  1  0.41626  0.80546  0.32467  1
 O  O11  1  0.34398  0.50000  0.58462  1
 O  O12  1  0.00383  0.00000  0.11607  1
 O  O13  1  0.65374  0.50000  0.12693  1
 O  O14  1  0.84398  0.00000  0.41538  1
 P  P1  1  0.52972  0.00000  0.41538  1
 P  P2  1  0.02972  0.50000  0.58462  1
