CIF file written using JARVIS-Tools package.
data_CeYCo4
_symmetry_space_group_name_H-M  'F-43m'
_cell_length_a       5.01024
_cell_length_b       5.01023
_cell_length_c       5.01024
_cell_angle_alpha    90
_cell_angle_beta     60
_cell_angle_gamma    120

_symmetry_Int_Tables_number  216
_chemical_formula_structural  CeYCo4
_chemical_formula_sum  CeYCo4
_cell_volume  88.93236607840024
_cell_formula_units_Z  1
loop_
  _symmetry_equiv_pos_site_id
 _symmetry_equiv_pos_as_xyz
 1  'x, y, z'
loop_
 _atom_site_type_symbol
 _atom_site_label
 _atom_site_symmetry_multiplicity
 _atom_site_fract_x
 _atom_site_fract_y
 _atom_site_fract_z
 _atom_site_fract_occupancy
 Ce  Ce1  1  0.50000  0.75000  0.75000  1
 Co  Co1  1  0.74954  0.37477  0.87569  1
 Co  Co2  1  0.25046  0.37477  0.37477  1
 Co  Co3  1  0.25046  0.87569  0.37477  1
 Co  Co4  1  0.74954  0.37477  0.37477  1
 Y  Y1  1  0.00000  0.00000  0.00000  1
