CIF file written using JARVIS-Tools package.
data_Mn3OF5
_symmetry_space_group_name_H-M  'Pmn2_1'
_cell_length_a       4.75916
_cell_length_b       4.78037
_cell_length_c       9.75501
_cell_angle_alpha    90
_cell_angle_beta     90
_cell_angle_gamma    90

_symmetry_Int_Tables_number  31
_chemical_formula_structural  Mn3OF5
_chemical_formula_sum  Mn6O2F0
_cell_volume  221.93167660665927
_cell_formula_units_Z  2
loop_
  _symmetry_equiv_pos_site_id
 _symmetry_equiv_pos_as_xyz
 1  'x, y, z'
loop_
 _atom_site_type_symbol
 _atom_site_label
 _atom_site_symmetry_multiplicity
 _atom_site_fract_x
 _atom_site_fract_y
 _atom_site_fract_z
 _atom_site_fract_occupancy
 F  F1  1  0.56392  0.19021  0.17649  1
 F  F2  1  0.52144  0.21248  0.50000  1
 F  F3  1  0.95835  0.80464  0.83240  1
 F  F4  1  0.04165  0.30464  0.33240  1
 F  F5  1  0.95835  0.80464  0.16760  1
 F  F6  1  0.47856  0.71248  0.00000  1
 F  F7  1  0.43608  0.69021  0.32351  1
 F  F8  1  0.43608  0.69021  0.67649  1
 F  F9  1  0.56392  0.19021  0.82351  1
 F  F10  1  0.04165  0.30464  0.66760  1
 Mn  Mn1  1  0.21869  0.52348  0.50000  1
 Mn  Mn2  1  0.24669  0.48409  0.15745  1
 Mn  Mn3  1  0.24669  0.48409  0.84255  1
 Mn  Mn4  1  0.75331  0.98409  0.65745  1
 Mn  Mn5  1  0.75331  0.98409  0.34255  1
 Mn  Mn6  1  0.78131  0.02348  0.00000  1
 O  O1  1  0.07135  0.30585  0.00000  1
 O  O2  1  0.92865  0.80585  0.50000  1
