CIF file written using JARVIS-Tools package.
data_BMoWC
_symmetry_space_group_name_H-M  'Cmcm'
_cell_length_a       8.92657
_cell_length_b       8.92657
_cell_length_c       3.07613
_cell_angle_alpha    90
_cell_angle_beta     90
_cell_angle_gamma    159.858

_symmetry_Int_Tables_number  63
_chemical_formula_structural  BMoWC
_chemical_formula_sum  B2Mo2W2C2
_cell_volume  84.40469971462055
_cell_formula_units_Z  2
loop_
  _symmetry_equiv_pos_site_id
 _symmetry_equiv_pos_as_xyz
 1  'x, y, z'
loop_
 _atom_site_type_symbol
 _atom_site_label
 _atom_site_symmetry_multiplicity
 _atom_site_fract_x
 _atom_site_fract_y
 _atom_site_fract_z
 _atom_site_fract_occupancy
 B  B1  1  0.52803  0.47197  0.75000  1
 B  B2  1  0.47197  0.52803  0.25000  1
 C  C1  1  0.80806  0.19194  0.75000  1
 C  C2  1  0.19194  0.80806  0.25000  1
 Mo  Mo1  1  0.68481  0.31519  0.75000  1
 Mo  Mo2  1  0.31519  0.68481  0.25000  1
 W  W1  1  0.92730  0.07270  0.75000  1
 W  W2  1  0.07270  0.92730  0.25000  1
