CIF file written using JARVIS-Tools package.
data_SrInF2
_symmetry_space_group_name_H-M  'P4mm'
_cell_length_a       3.51948
_cell_length_b       3.51948
_cell_length_c       6.85046
_cell_angle_alpha    90
_cell_angle_beta     90
_cell_angle_gamma    90

_symmetry_Int_Tables_number  99
_chemical_formula_structural  SrInF2
_chemical_formula_sum  SrInF2
_cell_volume  84.8550433830621
_cell_formula_units_Z  1
loop_
  _symmetry_equiv_pos_site_id
 _symmetry_equiv_pos_as_xyz
 1  'x, y, z'
loop_
 _atom_site_type_symbol
 _atom_site_label
 _atom_site_symmetry_multiplicity
 _atom_site_fract_x
 _atom_site_fract_y
 _atom_site_fract_z
 _atom_site_fract_occupancy
 F  F1  1  0.00000  0.00000  0.45892  1
 F  F2  1  0.50000  0.50000  0.15542  1
 In  In1  1  0.00000  0.00000  0.91418  1
 Sr  Sr1  1  0.50000  0.50000  0.48148  1
