CIF file written using JARVIS-Tools package.
data_LaH2
_symmetry_space_group_name_H-M  'Fm-3m'
_cell_length_a       3.99438
_cell_length_b       3.99392
_cell_length_c       3.99406
_cell_angle_alpha    90.0028
_cell_angle_beta     59.9985
_cell_angle_gamma    119.999

_symmetry_Int_Tables_number  225
_chemical_formula_structural  LaH2
_chemical_formula_sum  LaH2
_cell_volume  45.05613238963337
_cell_formula_units_Z  1
loop_
  _symmetry_equiv_pos_site_id
 _symmetry_equiv_pos_as_xyz
 1  'x, y, z'
loop_
 _atom_site_type_symbol
 _atom_site_label
 _atom_site_symmetry_multiplicity
 _atom_site_fract_x
 _atom_site_fract_y
 _atom_site_fract_z
 _atom_site_fract_occupancy
 H  H1  1  0.56877  0.53458  0.82409  1
 H  H2  1  0.56868  0.03451  0.32412  1
 La  La1  1  0.06863  0.78444  0.07409  1
