CIF file written using JARVIS-Tools package.
data_B2MoRu
_symmetry_space_group_name_H-M  'Pmc2_1'
_cell_length_a       2.96559
_cell_length_b       4.5819
_cell_length_c       6.01111
_cell_angle_alpha    90
_cell_angle_beta     90
_cell_angle_gamma    90

_symmetry_Int_Tables_number  26
_chemical_formula_structural  B2MoRu
_chemical_formula_sum  B4Mo2Ru2
_cell_volume  81.6792324074733
_cell_formula_units_Z  2
loop_
  _symmetry_equiv_pos_site_id
 _symmetry_equiv_pos_as_xyz
 1  'x, y, z'
loop_
 _atom_site_type_symbol
 _atom_site_label
 _atom_site_symmetry_multiplicity
 _atom_site_fract_x
 _atom_site_fract_y
 _atom_site_fract_z
 _atom_site_fract_occupancy
 B  B1  1  0.00000  0.63429  0.52945  1
 B  B2  1  0.00000  0.36571  0.02945  1
 B  B3  1  0.50000  0.83014  0.47329  1
 B  B4  1  0.50000  0.16986  0.97329  1
 Mo  Mo1  1  0.00000  0.11954  0.67885  1
 Mo  Mo2  1  0.00000  0.88046  0.17885  1
 Ru  Ru1  1  0.50000  0.37335  0.31840  1
 Ru  Ru2  1  0.50000  0.62665  0.81840  1
