CIF file written using JARVIS-Tools package.
data_HfCrO3
_symmetry_space_group_name_H-M  'Pnma'
_cell_length_a       4.84257
_cell_length_b       5.29998
_cell_length_c       9.19192
_cell_angle_alpha    90
_cell_angle_beta     90
_cell_angle_gamma    90

_symmetry_Int_Tables_number  62
_chemical_formula_structural  HfCrO3
_chemical_formula_sum  Hf4Cr4O2
_cell_volume  235.91561533027902
_cell_formula_units_Z  4
loop_
  _symmetry_equiv_pos_site_id
 _symmetry_equiv_pos_as_xyz
 1  'x, y, z'
loop_
 _atom_site_type_symbol
 _atom_site_label
 _atom_site_symmetry_multiplicity
 _atom_site_fract_x
 _atom_site_fract_y
 _atom_site_fract_z
 _atom_site_fract_occupancy
 Cr  Cr1  1  0.00000  0.50000  0.50000  1
 Cr  Cr2  1  0.50000  0.00000  0.50000  1
 Cr  Cr3  1  0.00000  0.50000  0.00000  1
 Cr  Cr4  1  0.50000  0.00000  0.00000  1
 Hf  Hf1  1  0.04621  0.95276  0.75000  1
 Hf  Hf2  1  0.45379  0.45276  0.75000  1
 Hf  Hf3  1  0.54621  0.54724  0.25000  1
 Hf  Hf4  1  0.95379  0.04724  0.25000  1
 O  O1  1  0.18394  0.37208  0.25000  1
 O  O2  1  0.78971  0.78023  0.10045  1
 O  O3  1  0.68394  0.12792  0.75000  1
 O  O4  1  0.81606  0.62792  0.75000  1
 O  O5  1  0.31606  0.87208  0.25000  1
 O  O6  1  0.71029  0.28023  0.10045  1
 O  O7  1  0.28971  0.71977  0.60045  1
 O  O8  1  0.28971  0.71977  0.89955  1
 O  O9  1  0.21029  0.21977  0.60045  1
 O  O10  1  0.71029  0.28023  0.39955  1
 O  O11  1  0.21029  0.21977  0.89955  1
 O  O12  1  0.78971  0.78023  0.39955  1
