CIF file written using JARVIS-Tools package.
data_Li3Fe4CuO8
_symmetry_space_group_name_H-M  'C2/m'
_cell_length_a       5.78731
_cell_length_b       5.78731
_cell_length_c       5.80221
_cell_angle_alpha    60.9089
_cell_angle_beta     60.909
_cell_angle_gamma    59.9129

_symmetry_Int_Tables_number  12
_chemical_formula_structural  Li3Fe4CuO8
_chemical_formula_sum  Li3Fe4CuO8
_cell_volume  139.17767252206946
_cell_formula_units_Z  1
loop_
  _symmetry_equiv_pos_site_id
 _symmetry_equiv_pos_as_xyz
 1  'x, y, z'
loop_
 _atom_site_type_symbol
 _atom_site_label
 _atom_site_symmetry_multiplicity
 _atom_site_fract_x
 _atom_site_fract_y
 _atom_site_fract_z
 _atom_site_fract_occupancy
 Cu  Cu1  1  0.50000  0.50000  0.00000  1
 Fe  Fe1  1  0.50000  0.50000  0.50000  1
 Fe  Fe2  1  0.00000  0.00000  0.00000  1
 Fe  Fe3  1  0.00000  0.50000  0.50000  1
 Fe  Fe4  1  0.50000  -0.00000  0.50000  1
 Li  Li1  1  0.00000  0.50000  -0.00000  1
 Li  Li2  1  -0.00000  0.00000  0.50000  1
 Li  Li3  1  0.50000  -0.00000  -0.00000  1
 O  O1  1  0.24881  0.24881  0.27920  1
 O  O2  1  0.25954  0.76760  0.73298  1
 O  O3  1  0.76760  0.25954  0.73298  1
 O  O4  1  0.74967  0.74967  0.26572  1
 O  O5  1  0.25033  0.25033  0.73428  1
 O  O6  1  0.23240  0.74046  0.26702  1
 O  O7  1  0.74046  0.23240  0.26702  1
 O  O8  1  0.75119  0.75119  0.72080  1
