CIF file written using JARVIS-Tools package.
data_CoReO4
_symmetry_space_group_name_H-M  'Cmmm'
_cell_length_a       4.56613
_cell_length_b       4.56612
_cell_length_c       2.87136
_cell_angle_alpha    90
_cell_angle_beta     90
_cell_angle_gamma    92.406

_symmetry_Int_Tables_number  65
_chemical_formula_structural  CoReO4
_chemical_formula_sum  CoReO4
_cell_volume  59.8135546304925
_cell_formula_units_Z  1
loop_
  _symmetry_equiv_pos_site_id
 _symmetry_equiv_pos_as_xyz
 1  'x, y, z'
loop_
 _atom_site_type_symbol
 _atom_site_label
 _atom_site_symmetry_multiplicity
 _atom_site_fract_x
 _atom_site_fract_y
 _atom_site_fract_z
 _atom_site_fract_occupancy
 Co  Co1  1  0.00000  0.00000  0.00000  1
 O  O1  1  0.71163  0.28837  0.00000  1
 O  O2  1  0.19992  0.19992  0.50000  1
 O  O3  1  0.28837  0.71163  0.00000  1
 O  O4  1  0.80008  0.80008  0.50000  1
 Re  Re1  1  0.50000  0.50000  0.50000  1
