CIF file written using JARVIS-Tools package.
data_Fe3O5F
_symmetry_space_group_name_H-M  'P2/m'
_cell_length_a       2.85903
_cell_length_b       4.37446
_cell_length_c       13.0961
_cell_angle_alpha    87.9459
_cell_angle_beta     90
_cell_angle_gamma    90

_symmetry_Int_Tables_number  10
_chemical_formula_structural  Fe3O5F
_chemical_formula_sum  Fe6O0F2
_cell_volume  163.68412945026108
_cell_formula_units_Z  2
loop_
  _symmetry_equiv_pos_site_id
 _symmetry_equiv_pos_as_xyz
 1  'x, y, z'
loop_
 _atom_site_type_symbol
 _atom_site_label
 _atom_site_symmetry_multiplicity
 _atom_site_fract_x
 _atom_site_fract_y
 _atom_site_fract_z
 _atom_site_fract_occupancy
 F  F1  1  0.50000  0.19985  0.73153  1
 F  F2  1  0.50000  0.80015  0.26847  1
 Fe  Fe1  1  0.50000  0.52722  0.84154  1
 Fe  Fe2  1  0.50000  0.50000  0.50000  1
 Fe  Fe3  1  0.00000  0.00000  0.00000  1
 Fe  Fe4  1  0.00000  0.97844  0.65788  1
 Fe  Fe5  1  0.00000  0.02156  0.34212  1
 Fe  Fe6  1  0.50000  0.47278  0.15846  1
 O  O1  1  0.50000  0.20311  0.40087  1
 O  O2  1  0.50000  0.18552  0.06532  1
 O  O3  1  0.00000  0.29836  0.56504  1
 O  O4  1  0.00000  0.29767  0.23233  1
 O  O5  1  0.00000  0.68618  0.09978  1
 O  O6  1  0.00000  0.70233  0.76767  1
 O  O7  1  0.50000  0.81448  0.93468  1
 O  O8  1  0.50000  0.79689  0.59913  1
 O  O9  1  0.00000  0.70164  0.43496  1
 O  O10  1  0.00000  0.31382  0.90022  1
