CIF file written using JARVIS-Tools package.
data_LiMoO
_symmetry_space_group_name_H-M  'Amm2'
_cell_length_a       5.70102
_cell_length_b       5.70147
_cell_length_c       2.59909
_cell_angle_alpha    90
_cell_angle_beta     90
_cell_angle_gamma    152.633

_symmetry_Int_Tables_number  38
_chemical_formula_structural  LiMoO
_chemical_formula_sum  LiMoO
_cell_volume  38.83456816923423
_cell_formula_units_Z  1
loop_
  _symmetry_equiv_pos_site_id
 _symmetry_equiv_pos_as_xyz
 1  'x, y, z'
loop_
 _atom_site_type_symbol
 _atom_site_label
 _atom_site_symmetry_multiplicity
 _atom_site_fract_x
 _atom_site_fract_y
 _atom_site_fract_z
 _atom_site_fract_occupancy
 Li  Li1  1  0.28788  0.04555  0.00000  1
 Mo  Mo1  1  0.03802  0.29520  0.00000  1
 O  O1  1  0.67411  0.65925  0.00000  1
