CIF file written using JARVIS-Tools package.
data_SnMo6Se8
_symmetry_space_group_name_H-M  'R-3'
_cell_length_a       6.8474
_cell_length_b       6.8474
_cell_length_c       6.84741
_cell_angle_alpha    89.2168
_cell_angle_beta     89.2167
_cell_angle_gamma    89.2167

_symmetry_Int_Tables_number  148
_chemical_formula_structural  SnMo6Se8
_chemical_formula_sum  SnMo6Se8
_cell_volume  320.9645538276667
_cell_formula_units_Z  1
loop_
  _symmetry_equiv_pos_site_id
 _symmetry_equiv_pos_as_xyz
 1  'x, y, z'
loop_
 _atom_site_type_symbol
 _atom_site_label
 _atom_site_symmetry_multiplicity
 _atom_site_fract_x
 _atom_site_fract_y
 _atom_site_fract_z
 _atom_site_fract_occupancy
 Mo  Mo1  1  0.76138  0.57815  0.43988  1
 Mo  Mo2  1  0.43988  0.76138  0.57815  1
 Mo  Mo3  1  0.57815  0.43988  0.76138  1
 Mo  Mo4  1  0.23862  0.42185  0.56012  1
 Mo  Mo5  1  0.56012  0.23862  0.42185  1
 Mo  Mo6  1  0.42185  0.56012  0.23862  1
 Se  Se1  1  0.75943  0.75943  0.75943  1
 Se  Se2  1  0.24057  0.24057  0.24057  1
 Se  Se3  1  0.25129  0.62074  0.87980  1
 Se  Se4  1  0.87980  0.25129  0.62074  1
 Se  Se5  1  0.62074  0.87980  0.25129  1
 Se  Se6  1  0.74871  0.37926  0.12020  1
 Se  Se7  1  0.12020  0.74871  0.37926  1
 Se  Se8  1  0.37926  0.12020  0.74871  1
 Sn  Sn1  1  0.00000  0.00000  0.00000  1
