CIF file written using JARVIS-Tools package.
data_LiVSi2O6
_symmetry_space_group_name_H-M  'P-1'
_cell_length_a       7.28445
_cell_length_b       7.30512
_cell_length_c       7.02391
_cell_angle_alpha    117.675
_cell_angle_beta     78.6972
_cell_angle_gamma    98.2646

_symmetry_Int_Tables_number  2
_chemical_formula_structural  LiVSi2O6
_chemical_formula_sum  Li3V3Si6O8
_cell_volume  323.9901648467069
_cell_formula_units_Z  3
loop_
  _symmetry_equiv_pos_site_id
 _symmetry_equiv_pos_as_xyz
 1  'x, y, z'
loop_
 _atom_site_type_symbol
 _atom_site_label
 _atom_site_symmetry_multiplicity
 _atom_site_fract_x
 _atom_site_fract_y
 _atom_site_fract_z
 _atom_site_fract_occupancy
 Li  Li1  1  0.24182  0.76045  0.37644  1
 Li  Li2  1  0.50000  0.50000  0.50000  1
 Li  Li3  1  0.75818  0.23955  0.62356  1
 O  O1  1  0.05743  0.77077  0.21932  1
 O  O2  1  0.03661  0.66620  0.77234  1
 O  O3  1  0.96339  0.33380  0.22766  1
 O  O4  1  0.23539  0.06774  0.02384  1
 O  O5  1  0.32673  0.47632  0.24471  1
 O  O6  1  0.43855  0.80783  0.14714  1
 O  O7  1  0.28364  0.44438  0.83632  1
 O  O8  1  0.17049  0.24796  0.44678  1
 O  O9  1  0.27353  0.04020  0.62425  1
 O  O10  1  0.57953  0.22063  0.28262  1
 O  O11  1  0.71636  0.55562  0.16368  1
 O  O12  1  0.56145  0.19217  0.85286  1
 O  O13  1  0.76461  0.93226  0.97616  1
 O  O14  1  0.42047  0.77937  0.71738  1
 O  O15  1  0.82951  0.75204  0.55322  1
 O  O16  1  0.72647  0.95980  0.37575  1
 O  O17  1  0.67327  0.52368  0.75529  1
 O  O18  1  0.94257  0.22923  0.78068  1
 Si  Si1  1  0.61369  0.98195  0.20492  1
 Si  Si2  1  0.16906  0.29033  0.23991  1
 Si  Si3  1  0.15757  0.24586  0.67765  1
 Si  Si4  1  0.38631  0.01805  0.79508  1
 Si  Si5  1  0.84243  0.75414  0.32235  1
 Si  Si6  1  0.83094  0.70967  0.76009  1
 V  V1  1  0.77380  0.25816  0.04675  1
 V  V2  1  0.50000  0.50000  -0.00000  1
 V  V3  1  0.22620  0.74184  0.95325  1
