CIF file written using JARVIS-Tools package.
data_LiMnF4
_symmetry_space_group_name_H-M  'C2/m'
_cell_length_a       4.56189
_cell_length_b       4.56189
_cell_length_c       3.15867
_cell_angle_alpha    92.7945
_cell_angle_beta     92.7945
_cell_angle_gamma    87.2957

_symmetry_Int_Tables_number  12
_chemical_formula_structural  LiMnF4
_chemical_formula_sum  LiMnF4
_cell_volume  65.51237022714587
_cell_formula_units_Z  1
loop_
  _symmetry_equiv_pos_site_id
 _symmetry_equiv_pos_as_xyz
 1  'x, y, z'
loop_
 _atom_site_type_symbol
 _atom_site_label
 _atom_site_symmetry_multiplicity
 _atom_site_fract_x
 _atom_site_fract_y
 _atom_site_fract_z
 _atom_site_fract_occupancy
 F  F1  1  0.29192  0.70808  -0.00000  1
 F  F2  1  0.80375  0.80375  0.53765  1
 F  F3  1  0.19625  0.19625  0.46235  1
 F  F4  1  0.70808  0.29192  -0.00000  1
 Li  Li1  1  0.50000  0.50000  0.50000  1
 Mn  Mn1  1  0.00000  0.00000  0.00000  1
