CIF file written using JARVIS-Tools package.
data_Li4Ti3Mn2Nb3O16
_symmetry_space_group_name_H-M  'Cm'
_cell_length_a       6.04195
_cell_length_b       6.04195
_cell_length_c       9.95256
_cell_angle_alpha    89.0262
_cell_angle_beta     89.0263
_cell_angle_gamma    59.3142

_symmetry_Int_Tables_number  8
_chemical_formula_structural  Li4Ti3Mn2Nb3O16
_chemical_formula_sum  Li4Ti3Mn2Nb3O6
_cell_volume  312.3871908420003
_cell_formula_units_Z  1
loop_
  _symmetry_equiv_pos_site_id
 _symmetry_equiv_pos_as_xyz
 1  'x, y, z'
loop_
 _atom_site_type_symbol
 _atom_site_label
 _atom_site_symmetry_multiplicity
 _atom_site_fract_x
 _atom_site_fract_y
 _atom_site_fract_z
 _atom_site_fract_occupancy
 Li  Li1  1  0.66311  0.66311  0.89825  1
 Li  Li2  1  0.01221  0.01221  0.99599  1
 Li  Li3  1  0.00804  0.00804  0.49659  1
 Li  Li4  1  0.33091  0.33091  0.39072  1
 Mn  Mn1  1  0.67281  0.67281  0.49637  1
 Mn  Mn2  1  0.33621  0.33621  0.00292  1
 Nb  Nb1  1  0.18505  0.64323  0.71058  1
 Nb  Nb2  1  0.83309  0.83309  0.21423  1
 Nb  Nb3  1  0.64323  0.18505  0.71058  1
 O  O1  1  0.66785  0.66785  0.10417  1
 O  O2  1  0.83852  0.31854  0.60400  1
 O  O3  1  0.51765  0.51765  0.32590  1
 O  O4  1  0.00340  0.00340  0.31735  1
 O  O5  1  -0.00039  -0.00039  0.81659  1
 O  O6  1  0.31854  0.83852  0.60400  1
 O  O7  1  0.48192  0.48192  0.85119  1
 O  O8  1  0.51108  0.96920  0.33056  1
 O  O9  1  0.69043  0.16352  0.10259  1
 O  O10  1  0.47683  0.02676  0.82693  1
 O  O11  1  0.02676  0.47683  0.82693  1
 O  O12  1  0.31301  0.31301  0.59326  1
 O  O13  1  0.96920  0.51108  0.33056  1
 O  O14  1  0.16046  0.16046  0.10708  1
 O  O15  1  0.84452  0.84452  0.59397  1
 O  O16  1  0.16352  0.69043  0.10259  1
 Ti  Ti1  1  0.16204  0.16204  0.72135  1
 Ti  Ti2  1  0.33913  0.83231  0.21628  1
 Ti  Ti3  1  0.83231  0.33913  0.21628  1
