CIF file written using JARVIS-Tools package.
data_LiYP
_symmetry_space_group_name_H-M  'I4mm'
_cell_length_a       4.76229
_cell_length_b       4.76229
_cell_length_c       4.76229
_cell_angle_alpha    133.618
_cell_angle_beta     133.618
_cell_angle_gamma    67.6849

_symmetry_Int_Tables_number  107
_chemical_formula_structural  LiYP
_chemical_formula_sum  LiYP
_cell_volume  55.6452124533563
_cell_formula_units_Z  1
loop_
  _symmetry_equiv_pos_site_id
 _symmetry_equiv_pos_as_xyz
 1  'x, y, z'
loop_
 _atom_site_type_symbol
 _atom_site_label
 _atom_site_symmetry_multiplicity
 _atom_site_fract_x
 _atom_site_fract_y
 _atom_site_fract_z
 _atom_site_fract_occupancy
 Li  Li1  1  0.54381  0.54381  -0.00000  1
 P  P1  1  0.85338  0.85338  -0.00000  1
 Y  Y1  1  0.20841  0.20841  0.00000  1
