CIF file written using JARVIS-Tools package.
data_LiYP
_symmetry_space_group_name_H-M  'P4/nmm'
_cell_length_a       4.62989
_cell_length_b       4.62989
_cell_length_c       6.5818
_cell_angle_alpha    90
_cell_angle_beta     90
_cell_angle_gamma    90

_symmetry_Int_Tables_number  129
_chemical_formula_structural  LiYP
_chemical_formula_sum  Li2Y2P2
_cell_volume  141.08673113973765
_cell_formula_units_Z  2
loop_
  _symmetry_equiv_pos_site_id
 _symmetry_equiv_pos_as_xyz
 1  'x, y, z'
loop_
 _atom_site_type_symbol
 _atom_site_label
 _atom_site_symmetry_multiplicity
 _atom_site_fract_x
 _atom_site_fract_y
 _atom_site_fract_z
 _atom_site_fract_occupancy
 Li  Li1  1  0.50000  0.00000  0.60577  1
 Li  Li2  1  0.00000  0.50000  0.39423  1
 P  P1  1  0.00000  0.50000  0.76867  1
 P  P2  1  0.50000  0.00000  0.23133  1
 Y  Y1  1  0.50000  0.50000  0.00000  1
 Y  Y2  1  0.00000  0.00000  0.00000  1
