CIF file written using JARVIS-Tools package.
data_Y3Ga2Ni6
_symmetry_space_group_name_H-M  'Im-3m'
_cell_length_a       7.70571
_cell_length_b       7.70571
_cell_length_c       7.70571
_cell_angle_alpha    109.471
_cell_angle_beta     109.471
_cell_angle_gamma    109.471

_symmetry_Int_Tables_number  229
_chemical_formula_structural  Y3Ga2Ni6
_chemical_formula_sum  Y6Ga4Ni2
_cell_volume  352.22149890434576
_cell_formula_units_Z  2
loop_
  _symmetry_equiv_pos_site_id
 _symmetry_equiv_pos_as_xyz
 1  'x, y, z'
loop_
 _atom_site_type_symbol
 _atom_site_label
 _atom_site_symmetry_multiplicity
 _atom_site_fract_x
 _atom_site_fract_y
 _atom_site_fract_z
 _atom_site_fract_occupancy
 Ga  Ga1  1  0.00000  0.00000  0.50000  1
 Ga  Ga2  1  -0.00000  0.50000  0.00000  1
 Ga  Ga3  1  0.50000  0.00000  0.00000  1
 Ga  Ga4  1  0.50000  0.50000  0.50000  1
 Ni  Ni1  1  0.66419  0.66419  0.32837  1
 Ni  Ni2  1  0.66419  0.32837  0.66419  1
 Ni  Ni3  1  0.66419  -0.00000  0.33581  1
 Ni  Ni4  1  -0.00000  0.66419  0.33581  1
 Ni  Ni5  1  0.66419  0.33581  0.00000  1
 Ni  Ni6  1  0.33581  0.33581  0.67163  1
 Ni  Ni7  1  0.00000  0.33581  0.66419  1
 Ni  Ni8  1  0.33581  0.66419  -0.00000  1
 Ni  Ni9  1  0.32837  0.66419  0.66419  1
 Ni  Ni10  1  0.67163  0.33581  0.33581  1
 Ni  Ni11  1  0.33581  0.67163  0.33581  1
 Ni  Ni12  1  0.33581  0.00000  0.66419  1
 Y  Y1  1  0.00000  0.70891  0.70891  1
 Y  Y2  1  0.70891  -0.00000  0.70891  1
 Y  Y3  1  0.29109  0.29109  -0.00000  1
 Y  Y4  1  -0.00000  0.29109  0.29109  1
 Y  Y5  1  0.29109  0.00000  0.29109  1
 Y  Y6  1  0.70891  0.70891  0.00000  1
