CIF file written using JARVIS-Tools package.
data_InNiAg2F7
_symmetry_space_group_name_H-M  'Imma'
_cell_length_a       7.6332
_cell_length_b       7.6332
_cell_length_c       7.6332
_cell_angle_alpha    120.832
_cell_angle_beta     118.041
_cell_angle_gamma    90.995

_symmetry_Int_Tables_number  74
_chemical_formula_structural  InNiAg2F7
_chemical_formula_sum  In2Ni2Ag4F4
_cell_volume  316.8836323348082
_cell_formula_units_Z  2
loop_
  _symmetry_equiv_pos_site_id
 _symmetry_equiv_pos_as_xyz
 1  'x, y, z'
loop_
 _atom_site_type_symbol
 _atom_site_label
 _atom_site_symmetry_multiplicity
 _atom_site_fract_x
 _atom_site_fract_y
 _atom_site_fract_z
 _atom_site_fract_occupancy
 Ag  Ag1  1  0.50000  0.50000  0.00000  1
 Ag  Ag2  1  0.00000  0.00000  0.00000  1
 Ag  Ag3  1  -0.00000  0.50000  0.00000  1
 Ag  Ag4  1  0.00000  -0.00000  0.50000  1
 F  F1  1  0.81160  0.17203  0.22282  1
 F  F2  1  0.86812  0.60079  0.26733  1
 F  F3  1  0.16653  0.89921  0.26733  1
 F  F4  1  0.83347  0.10079  0.73267  1
 F  F5  1  0.44921  0.67203  0.36043  1
 F  F6  1  0.44921  0.08878  0.77718  1
 F  F7  1  0.18840  0.82797  0.77718  1
 F  F8  1  0.81160  0.58878  0.63957  1
 F  F9  1  0.57931  0.75000  0.82931  1
 F  F10  1  0.55079  0.32797  0.63957  1
 F  F11  1  0.18840  0.41122  0.36043  1
 F  F12  1  0.42069  0.25000  0.17069  1
 F  F13  1  0.13188  0.39921  0.73267  1
 F  F14  1  0.55079  0.91122  0.22282  1
 In  In1  1  0.50000  -0.00000  0.50000  1
 In  In2  1  -0.00000  0.50000  0.50000  1
 Ni  Ni1  1  0.50000  0.00000  -0.00000  1
 Ni  Ni2  1  0.50000  0.50000  0.50000  1
