CIF file written using JARVIS-Tools package.
data_Mn6O5F7
_symmetry_space_group_name_H-M  'P1'
_cell_length_a       4.64007
_cell_length_b       5.60638
_cell_length_c       7.80113
_cell_angle_alpha    86.8966
_cell_angle_beta     88.831
_cell_angle_gamma    88.8735

_symmetry_Int_Tables_number  1
_chemical_formula_structural  Mn6O5F7
_chemical_formula_sum  Mn6O5F7
_cell_volume  202.56367444008887
_cell_formula_units_Z  1
loop_
  _symmetry_equiv_pos_site_id
 _symmetry_equiv_pos_as_xyz
 1  'x, y, z'
loop_
 _atom_site_type_symbol
 _atom_site_label
 _atom_site_symmetry_multiplicity
 _atom_site_fract_x
 _atom_site_fract_y
 _atom_site_fract_z
 _atom_site_fract_occupancy
 F  F1  1  0.21014  0.28983  0.91888  1
 F  F2  1  0.19446  0.62526  0.55736  1
 F  F3  1  0.28913  0.79886  0.89604  1
 F  F4  1  0.70437  0.86205  0.42021  1
 F  F5  1  0.69904  0.19035  0.12032  1
 F  F6  1  0.80455  0.36007  0.43127  1
 F  F7  1  0.19484  0.97898  0.21696  1
 Mn  Mn1  1  0.52662  0.50739  0.00080  1
 Mn  Mn2  1  0.97117  0.98816  0.99252  1
 Mn  Mn3  1  0.00758  0.65349  0.31074  1
 Mn  Mn4  1  0.99060  0.32507  0.67565  1
 Mn  Mn5  1  0.45708  0.18763  0.34869  1
 Mn  Mn6  1  0.52297  0.84290  0.66915  1
 O  O1  1  0.31644  0.47521  0.22541  1
 O  O2  1  0.81212  0.70354  0.09475  1
 O  O3  1  0.80064  0.04508  0.77864  1
 O  O4  1  0.30075  0.12342  0.57366  1
 O  O5  1  0.69751  0.54270  0.76895  1
