CIF file written using JARVIS-Tools package.
data_TmMo6Se8
_symmetry_space_group_name_H-M  'R-3'
_cell_length_a       6.74563
_cell_length_b       6.74563
_cell_length_c       6.74563
_cell_angle_alpha    89.2777
_cell_angle_beta     89.2776
_cell_angle_gamma    89.2777

_symmetry_Int_Tables_number  148
_chemical_formula_structural  TmMo6Se8
_chemical_formula_sum  TmMo6Se8
_cell_volume  306.8773112166599
_cell_formula_units_Z  1
loop_
  _symmetry_equiv_pos_site_id
 _symmetry_equiv_pos_as_xyz
 1  'x, y, z'
loop_
 _atom_site_type_symbol
 _atom_site_label
 _atom_site_symmetry_multiplicity
 _atom_site_fract_x
 _atom_site_fract_y
 _atom_site_fract_z
 _atom_site_fract_occupancy
 Mo  Mo1  1  0.76662  0.57587  0.44192  1
 Mo  Mo2  1  0.44192  0.76662  0.57587  1
 Mo  Mo3  1  0.57587  0.44192  0.76662  1
 Mo  Mo4  1  0.23338  0.42413  0.55808  1
 Mo  Mo5  1  0.55808  0.23338  0.42413  1
 Mo  Mo6  1  0.42413  0.55808  0.23338  1
 Se  Se1  1  0.76495  0.76495  0.76495  1
 Se  Se2  1  0.23505  0.23505  0.23505  1
 Se  Se3  1  0.24111  0.63278  0.87834  1
 Se  Se4  1  0.87834  0.24111  0.63278  1
 Se  Se5  1  0.63278  0.87834  0.24111  1
 Se  Se6  1  0.75889  0.36722  0.12166  1
 Se  Se7  1  0.12166  0.75889  0.36722  1
 Se  Se8  1  0.36722  0.12166  0.75889  1
 Tm  Tm1  1  0.00000  0.00000  0.00000  1
