CIF file written using JARVIS-Tools package.
data_Mn6O5F7
_symmetry_space_group_name_H-M  'P1'
_cell_length_a       4.6947
_cell_length_b       5.6288
_cell_length_c       7.69032
_cell_angle_alpha    85.307
_cell_angle_beta     86.5707
_cell_angle_gamma    86.5534

_symmetry_Int_Tables_number  1
_chemical_formula_structural  Mn6O5F7
_chemical_formula_sum  Mn6O5F7
_cell_volume  201.8649597564404
_cell_formula_units_Z  1
loop_
  _symmetry_equiv_pos_site_id
 _symmetry_equiv_pos_as_xyz
 1  'x, y, z'
loop_
 _atom_site_type_symbol
 _atom_site_label
 _atom_site_symmetry_multiplicity
 _atom_site_fract_x
 _atom_site_fract_y
 _atom_site_fract_z
 _atom_site_fract_occupancy
 F  F1  1  0.23007  0.29332  0.90358  1
 F  F2  1  0.18995  0.62270  0.57852  1
 F  F3  1  0.28130  0.78276  0.91330  1
 F  F4  1  0.69808  0.87781  0.41469  1
 F  F5  1  0.77574  0.69658  0.09762  1
 F  F6  1  0.79429  0.38048  0.43455  1
 F  F7  1  0.18098  0.96652  0.21223  1
 Mn  Mn1  1  0.51592  0.48027  0.00061  1
 Mn  Mn2  1  0.96717  0.00529  0.99367  1
 Mn  Mn3  1  0.02589  0.65509  0.32676  1
 Mn  Mn4  1  0.99421  0.32385  0.67160  1
 Mn  Mn5  1  0.48221  0.18123  0.33151  1
 Mn  Mn6  1  0.52905  0.85572  0.67828  1
 O  O1  1  0.30987  0.45788  0.22306  1
 O  O2  1  0.70017  0.20385  0.10541  1
 O  O3  1  0.82086  0.04802  0.77502  1
 O  O4  1  0.29793  0.13640  0.55803  1
 O  O5  1  0.70632  0.53223  0.78156  1
