CIF file written using JARVIS-Tools package.
data_ZnCr4CdSe8
_symmetry_space_group_name_H-M  'F-43m'
_cell_length_a       7.56645
_cell_length_b       7.56645
_cell_length_c       7.56645
_cell_angle_alpha    60
_cell_angle_beta     60
_cell_angle_gamma    60

_symmetry_Int_Tables_number  216
_chemical_formula_structural  ZnCr4CdSe8
_chemical_formula_sum  ZnCr4CdSe8
_cell_volume  306.310066234243
_cell_formula_units_Z  1
loop_
  _symmetry_equiv_pos_site_id
 _symmetry_equiv_pos_as_xyz
 1  'x, y, z'
loop_
 _atom_site_type_symbol
 _atom_site_label
 _atom_site_symmetry_multiplicity
 _atom_site_fract_x
 _atom_site_fract_y
 _atom_site_fract_z
 _atom_site_fract_occupancy
 Cd  Cd1  1  0.75000  0.75000  0.75000  1
 Cr  Cr1  1  0.62388  0.12537  0.12537  1
 Cr  Cr2  1  0.12537  0.62388  0.12537  1
 Cr  Cr3  1  0.12537  0.12537  0.62388  1
 Cr  Cr4  1  0.12537  0.12537  0.12537  1
 Se  Se1  1  0.32988  0.89004  0.89004  1
 Se  Se2  1  0.89004  0.32988  0.89004  1
 Se  Se3  1  0.89004  0.89004  0.32988  1
 Se  Se4  1  0.89004  0.89004  0.89004  1
 Se  Se5  1  0.90607  0.36464  0.36464  1
 Se  Se6  1  0.36464  0.90607  0.36464  1
 Se  Se7  1  0.36464  0.36464  0.90607  1
 Se  Se8  1  0.36464  0.36464  0.36464  1
 Zn  Zn1  1  0.50000  0.50000  0.50000  1
