CIF file written using JARVIS-Tools package.
data_YPaO4
_symmetry_space_group_name_H-M  'I4_1/amd'
_cell_length_a       6.58844
_cell_length_b       6.58844
_cell_length_c       6.58844
_cell_angle_alpha    131.765
_cell_angle_beta     131.765
_cell_angle_gamma    70.6004

_symmetry_Int_Tables_number  141
_chemical_formula_structural  YPaO4
_chemical_formula_sum  Y2Pa2O8
_cell_volume  155.87809872849135
_cell_formula_units_Z  2
loop_
  _symmetry_equiv_pos_site_id
 _symmetry_equiv_pos_as_xyz
 1  'x, y, z'
loop_
 _atom_site_type_symbol
 _atom_site_label
 _atom_site_symmetry_multiplicity
 _atom_site_fract_x
 _atom_site_fract_y
 _atom_site_fract_z
 _atom_site_fract_occupancy
 O  O1  1  0.37500  0.38439  0.50939  1
 O  O2  1  0.87500  0.86561  0.49061  1
 O  O3  1  0.13439  0.12500  0.50939  1
 O  O4  1  0.61561  0.12500  0.99061  1
 O  O5  1  0.87500  0.38439  0.00939  1
 O  O6  1  0.61561  0.62500  0.49061  1
 O  O7  1  0.13439  0.62500  0.00939  1
 O  O8  1  0.37500  0.86561  0.99061  1
 Pa  Pa1  1  0.50000  0.50000  -0.00000  1
 Pa  Pa2  1  0.25000  0.75000  0.50000  1
 Y  Y1  1  0.00000  0.00000  0.00000  1
 Y  Y2  1  0.75000  0.25000  0.50000  1
