CIF file written using JARVIS-Tools package.
data_Mg3N
_symmetry_space_group_name_H-M  'C2/m'
_cell_length_a       4.26537
_cell_length_b       6.18588
_cell_length_c       3.25114
_cell_angle_alpha    59.2882
_cell_angle_beta     90.0432
_cell_angle_gamma    69.8596

_symmetry_Int_Tables_number  12
_chemical_formula_structural  Mg3N
_chemical_formula_sum  Mg3N
_cell_volume  67.56283232727506
_cell_formula_units_Z  1
loop_
  _symmetry_equiv_pos_site_id
 _symmetry_equiv_pos_as_xyz
 1  'x, y, z'
loop_
 _atom_site_type_symbol
 _atom_site_label
 _atom_site_symmetry_multiplicity
 _atom_site_fract_x
 _atom_site_fract_y
 _atom_site_fract_z
 _atom_site_fract_occupancy
 Mg  Mg1  1  0.13122  0.06102  0.00447  1
 Mg  Mg2  1  0.48753  0.34842  0.22537  1
 Mg  Mg3  1  0.84382  0.63595  0.44618  1
 N  N1  1  -0.01246  0.34847  0.22535  1
