CIF file written using JARVIS-Tools package.
data_Sr2CaI6
_symmetry_space_group_name_H-M  'C2/c'
_cell_length_a       8.42229
_cell_length_b       8.42229
_cell_length_c       12.8472
_cell_angle_alpha    87.6508
_cell_angle_beta     87.6508
_cell_angle_gamma    121.914

_symmetry_Int_Tables_number  15
_chemical_formula_structural  Sr2CaI6
_chemical_formula_sum  Sr4Ca2I2
_cell_volume  770.8005324368838
_cell_formula_units_Z  2
loop_
  _symmetry_equiv_pos_site_id
 _symmetry_equiv_pos_as_xyz
 1  'x, y, z'
loop_
 _atom_site_type_symbol
 _atom_site_label
 _atom_site_symmetry_multiplicity
 _atom_site_fract_x
 _atom_site_fract_y
 _atom_site_fract_z
 _atom_site_fract_occupancy
 Ca  Ca1  1  -0.01376  0.01376  0.25000  1
 Ca  Ca2  1  0.01376  -0.01376  0.75000  1
 I  I1  1  0.62141  0.93303  0.69466  1
 I  I2  1  0.27650  0.41140  0.12897  1
 I  I3  1  0.93303  0.62141  0.19466  1
 I  I4  1  0.06697  0.37859  0.80534  1
 I  I5  1  0.25710  0.98683  0.93259  1
 I  I6  1  0.01317  0.74290  0.56741  1
 I  I7  1  0.58860  0.72350  0.37103  1
 I  I8  1  0.72350  0.58860  0.87103  1
 I  I9  1  0.37859  0.06697  0.30534  1
 I  I10  1  0.74290  0.01317  0.06741  1
 I  I11  1  0.98683  0.25710  0.43259  1
 I  I12  1  0.41140  0.27650  0.62897  1
 Sr  Sr1  1  0.70437  0.41633  0.42474  1
 Sr  Sr2  1  0.58367  0.29563  0.07526  1
 Sr  Sr3  1  0.41633  0.70437  0.92474  1
 Sr  Sr4  1  0.29563  0.58367  0.57526  1
