CIF file written using JARVIS-Tools package.
data_Lu2Au
_symmetry_space_group_name_H-M  'Pnma'
_cell_length_a       4.81218
_cell_length_b       6.92326
_cell_length_c       8.69656
_cell_angle_alpha    90
_cell_angle_beta     90
_cell_angle_gamma    90

_symmetry_Int_Tables_number  62
_chemical_formula_structural  Lu2Au
_chemical_formula_sum  Lu8Au4
_cell_volume  289.73414736603536
_cell_formula_units_Z  4
loop_
  _symmetry_equiv_pos_site_id
 _symmetry_equiv_pos_as_xyz
 1  'x, y, z'
loop_
 _atom_site_type_symbol
 _atom_site_label
 _atom_site_symmetry_multiplicity
 _atom_site_fract_x
 _atom_site_fract_y
 _atom_site_fract_z
 _atom_site_fract_occupancy
 Au  Au1  1  0.25000  0.25834  0.89970  1
 Au  Au2  1  0.25000  0.75834  0.60030  1
 Au  Au3  1  0.75000  0.74166  0.10030  1
 Au  Au4  1  0.75000  0.24166  0.39970  1
 Lu  Lu1  1  0.25000  0.85022  0.92218  1
 Lu  Lu2  1  0.25000  0.35022  0.57782  1
 Lu  Lu3  1  0.75000  0.14978  0.07782  1
 Lu  Lu4  1  0.75000  0.64978  0.42218  1
 Lu  Lu5  1  0.25000  0.48519  0.17817  1
 Lu  Lu6  1  0.25000  0.98519  0.32183  1
 Lu  Lu7  1  0.75000  0.51481  0.82183  1
 Lu  Lu8  1  0.75000  0.01481  0.67817  1
