CIF file written using JARVIS-Tools package.
data_Na4NF
_symmetry_space_group_name_H-M  'R-3m'
_cell_length_a       7.02472
_cell_length_b       7.02472
_cell_length_c       7.02473
_cell_angle_alpha    33.6162
_cell_angle_beta     33.6162
_cell_angle_gamma    33.6162

_symmetry_Int_Tables_number  166
_chemical_formula_structural  Na4NF
_chemical_formula_sum  Na4NF
_cell_volume  94.64717758181352
_cell_formula_units_Z  1
loop_
  _symmetry_equiv_pos_site_id
 _symmetry_equiv_pos_as_xyz
 1  'x, y, z'
loop_
 _atom_site_type_symbol
 _atom_site_label
 _atom_site_symmetry_multiplicity
 _atom_site_fract_x
 _atom_site_fract_y
 _atom_site_fract_z
 _atom_site_fract_occupancy
 F  F1  1  0.50000  0.50000  0.50000  1
 N  N1  1  0.00000  0.00000  0.00000  1
 Na  Na1  1  0.88321  0.88321  0.88321  1
 Na  Na2  1  0.11679  0.11679  0.11679  1
 Na  Na3  1  0.63649  0.63649  0.63649  1
 Na  Na4  1  0.36351  0.36351  0.36351  1
