CIF file written using JARVIS-Tools package.
data_Sm2VFeO6
_symmetry_space_group_name_H-M  'P2_1/c'
_cell_length_a       5.55768
_cell_length_b       5.30759
_cell_length_c       9.2299
_cell_angle_alpha    55.2416
_cell_angle_beta     90
_cell_angle_gamma    90

_symmetry_Int_Tables_number  14
_chemical_formula_structural  Sm2VFeO6
_chemical_formula_sum  Sm4V2Fe2O2
_cell_volume  223.68085309429011
_cell_formula_units_Z  2
loop_
  _symmetry_equiv_pos_site_id
 _symmetry_equiv_pos_as_xyz
 1  'x, y, z'
loop_
 _atom_site_type_symbol
 _atom_site_label
 _atom_site_symmetry_multiplicity
 _atom_site_fract_x
 _atom_site_fract_y
 _atom_site_fract_z
 _atom_site_fract_occupancy
 Fe  Fe1  1  0.00000  0.50000  0.00000  1
 Fe  Fe2  1  0.50000  0.50000  0.50000  1
 O  O1  1  0.97892  0.83524  0.75065  1
 O  O2  1  0.79568  0.24590  0.95532  1
 O  O3  1  0.02108  0.16476  0.24935  1
 O  O4  1  0.20488  0.34462  0.45519  1
 O  O5  1  0.70488  0.65538  0.04481  1
 O  O6  1  0.29568  0.75410  0.54468  1
 O  O7  1  0.70432  0.24590  0.45532  1
 O  O8  1  0.79512  0.65538  0.54481  1
 O  O9  1  0.52108  0.83524  0.25065  1
 O  O10  1  0.20432  0.75410  0.04468  1
 O  O11  1  0.47892  0.16476  0.74935  1
 O  O12  1  0.29512  0.34462  0.95519  1
 Sm  Sm1  1  0.93971  0.73464  0.25029  1
 Sm  Sm2  1  0.43971  0.26536  0.24971  1
 Sm  Sm3  1  0.06029  0.26536  0.74971  1
 Sm  Sm4  1  0.56029  0.73464  0.75029  1
 V  V1  1  0.50000  0.00000  0.00000  1
 V  V2  1  0.00000  0.00000  0.50000  1
