CIF file written using JARVIS-Tools package.
data_TiOs2
_symmetry_space_group_name_H-M  'P6_3/mmc'
_cell_length_a       5.14119
_cell_length_b       5.14119
_cell_length_c       8.35726
_cell_angle_alpha    90
_cell_angle_beta     90
_cell_angle_gamma    120

_symmetry_Int_Tables_number  194
_chemical_formula_structural  TiOs2
_chemical_formula_sum  Ti4Os8
_cell_volume  191.30296542903605
_cell_formula_units_Z  4
loop_
  _symmetry_equiv_pos_site_id
 _symmetry_equiv_pos_as_xyz
 1  'x, y, z'
loop_
 _atom_site_type_symbol
 _atom_site_label
 _atom_site_symmetry_multiplicity
 _atom_site_fract_x
 _atom_site_fract_y
 _atom_site_fract_z
 _atom_site_fract_occupancy
 Os  Os1  1  0.00000  0.00000  0.50000  1
 Os  Os2  1  0.00000  0.00000  0.00000  1
 Os  Os3  1  0.82638  0.17362  0.25000  1
 Os  Os4  1  0.82638  0.65276  0.25000  1
 Os  Os5  1  0.34724  0.17362  0.25000  1
 Os  Os6  1  0.17362  0.82638  0.75000  1
 Os  Os7  1  0.17362  0.34724  0.75000  1
 Os  Os8  1  0.65276  0.82638  0.75000  1
 Ti  Ti1  1  0.33333  0.66667  0.43040  1
 Ti  Ti2  1  0.66667  0.33333  0.56960  1
 Ti  Ti3  1  0.66667  0.33333  0.93040  1
 Ti  Ti4  1  0.33333  0.66667  0.06960  1
