CIF file written using JARVIS-Tools package.
data_FeNiP6
_symmetry_space_group_name_H-M  'C2/m'
_cell_length_a       6.7602
_cell_length_b       6.7602
_cell_length_c       7.80402
_cell_angle_alpha    54.8119
_cell_angle_beta     54.812
_cell_angle_gamma    70.6236

_symmetry_Int_Tables_number  12
_chemical_formula_structural  FeNiP6
_chemical_formula_sum  Fe2Ni2P2
_cell_volume  238.21179548628734
_cell_formula_units_Z  2
loop_
  _symmetry_equiv_pos_site_id
 _symmetry_equiv_pos_as_xyz
 1  'x, y, z'
loop_
 _atom_site_type_symbol
 _atom_site_label
 _atom_site_symmetry_multiplicity
 _atom_site_fract_x
 _atom_site_fract_y
 _atom_site_fract_z
 _atom_site_fract_occupancy
 Fe  Fe1  1  -0.00000  0.50000  -0.00000  1
 Fe  Fe2  1  0.50000  -0.00000  -0.00000  1
 Ni  Ni1  1  0.50000  0.00000  0.50000  1
 Ni  Ni2  1  -0.00000  0.50000  0.50000  1
 P  P1  1  0.65659  0.65659  0.19706  1
 P  P2  1  0.34341  0.34341  0.80294  1
 P  P3  1  0.64687  0.64687  0.49711  1
 P  P4  1  0.35313  0.35313  0.50289  1
 P  P5  1  0.86073  0.15097  0.34276  1
 P  P6  1  0.13927  0.84903  0.65724  1
 P  P7  1  0.15097  0.86073  0.34276  1
 P  P8  1  0.84903  0.13927  0.65724  1
 P  P9  1  0.49344  0.79637  0.86049  1
 P  P10  1  0.50656  0.20363  0.13951  1
 P  P11  1  0.20363  0.50656  0.13951  1
 P  P12  1  0.79637  0.49344  0.86049  1
