CIF file written using JARVIS-Tools package.
data_SrNF
_symmetry_space_group_name_H-M  'P-6m2'
_cell_length_a       4.37589
_cell_length_b       4.37585
_cell_length_c       4.74632
_cell_angle_alpha    90
_cell_angle_beta     90
_cell_angle_gamma    119.939

_symmetry_Int_Tables_number  187
_chemical_formula_structural  SrNF
_chemical_formula_sum  SrNF
_cell_volume  78.75549535683562
_cell_formula_units_Z  1
loop_
  _symmetry_equiv_pos_site_id
 _symmetry_equiv_pos_as_xyz
 1  'x, y, z'
loop_
 _atom_site_type_symbol
 _atom_site_label
 _atom_site_symmetry_multiplicity
 _atom_site_fract_x
 _atom_site_fract_y
 _atom_site_fract_z
 _atom_site_fract_occupancy
 F  F1  1  -0.27760  -0.24670  0.00000  1
 N  N1  1  0.38907  0.08666  0.00000  1
 Sr  Sr1  1  0.05569  0.42008  0.00000  1
