CIF file written using JARVIS-Tools package.
data_Er4MnS7
_symmetry_space_group_name_H-M  'Cm'
_cell_length_a       6.29741
_cell_length_b       6.29741
_cell_length_c       11.1611
_cell_angle_alpha    76.525
_cell_angle_beta     76.525
_cell_angle_gamma    34.4024

_symmetry_Int_Tables_number  8
_chemical_formula_structural  Er4MnS7
_chemical_formula_sum  Er4MnS7
_cell_volume  242.52721988002892
_cell_formula_units_Z  1
loop_
  _symmetry_equiv_pos_site_id
 _symmetry_equiv_pos_as_xyz
 1  'x, y, z'
loop_
 _atom_site_type_symbol
 _atom_site_label
 _atom_site_symmetry_multiplicity
 _atom_site_fract_x
 _atom_site_fract_y
 _atom_site_fract_z
 _atom_site_fract_occupancy
 Er  Er1  1  0.69933  0.69933  0.21054  1
 Er  Er2  1  0.30540  0.30540  0.79549  1
 Er  Er3  1  0.10579  0.10579  0.55758  1
 Er  Er4  1  0.00070  0.00070  0.00957  1
 Mn  Mn1  1  0.89138  0.89138  0.43182  1
 S  S1  1  0.03072  0.03072  0.23659  1
 S  S2  1  0.96691  0.96691  0.78290  1
 S  S3  1  0.33708  0.33708  0.05358  1
 S  S4  1  0.66132  0.66132  0.94536  1
 S  S5  1  0.74600  0.74600  0.62844  1
 S  S6  1  0.27878  0.27878  0.35774  1
 S  S7  1  0.47661  0.47661  0.49038  1
