CIF file written using JARVIS-Tools package.
data_Sr2NF
_symmetry_space_group_name_H-M  'R-3m'
_cell_length_a       6.50831
_cell_length_b       6.50831
_cell_length_c       6.50831
_cell_angle_alpha    33.6721
_cell_angle_beta     33.6721
_cell_angle_gamma    33.6721

_symmetry_Int_Tables_number  166
_chemical_formula_structural  Sr2NF
_chemical_formula_sum  Sr2NF
_cell_volume  75.49838254127101
_cell_formula_units_Z  1
loop_
  _symmetry_equiv_pos_site_id
 _symmetry_equiv_pos_as_xyz
 1  'x, y, z'
loop_
 _atom_site_type_symbol
 _atom_site_label
 _atom_site_symmetry_multiplicity
 _atom_site_fract_x
 _atom_site_fract_y
 _atom_site_fract_z
 _atom_site_fract_occupancy
 F  F1  1  0.00000  0.00000  0.00000  1
 N  N1  1  0.50000  0.50000  0.50000  1
 Sr  Sr1  1  0.75867  0.75867  0.75867  1
 Sr  Sr2  1  0.24133  0.24133  0.24133  1
