CIF file written using JARVIS-Tools package.
data_NdIn4Ni
_symmetry_space_group_name_H-M  'Cmcm'
_cell_length_a       8.73794
_cell_length_b       8.73794
_cell_length_c       7.24749
_cell_angle_alpha    90
_cell_angle_beta     90
_cell_angle_gamma    150.349

_symmetry_Int_Tables_number  63
_chemical_formula_structural  NdIn4Ni
_chemical_formula_sum  Nd2In8Ni2
_cell_volume  273.7545621736033
_cell_formula_units_Z  2
loop_
  _symmetry_equiv_pos_site_id
 _symmetry_equiv_pos_as_xyz
 1  'x, y, z'
loop_
 _atom_site_type_symbol
 _atom_site_label
 _atom_site_symmetry_multiplicity
 _atom_site_fract_x
 _atom_site_fract_y
 _atom_site_fract_z
 _atom_site_fract_occupancy
 In  In1  1  0.50000  0.50000  0.00000  1
 In  In2  1  0.50000  0.50000  0.50000  1
 In  In3  1  0.07386  0.92614  0.75000  1
 In  In4  1  0.92614  0.07386  0.25000  1
 In  In5  1  0.68794  0.31206  0.95397  1
 In  In6  1  0.31206  0.68794  0.04603  1
 In  In7  1  0.68794  0.31206  0.54603  1
 In  In8  1  0.31206  0.68794  0.45397  1
 Nd  Nd1  1  0.88205  0.11795  0.75000  1
 Nd  Nd2  1  0.11795  0.88205  0.25000  1
 Ni  Ni1  1  0.22513  0.77487  0.75000  1
 Ni  Ni2  1  0.77487  0.22513  0.25000  1
