CIF file written using JARVIS-Tools package.
data_WOF2
_symmetry_space_group_name_H-M  'Immm'
_cell_length_a       5.25989
_cell_length_b       5.25989
_cell_length_c       5.25989
_cell_angle_alpha    149.74
_cell_angle_beta     52.9102
_cell_angle_gamma    137.673

_symmetry_Int_Tables_number  71
_chemical_formula_structural  WOF2
_chemical_formula_sum  WOF2
_cell_volume  49.10713060773598
_cell_formula_units_Z  1
loop_
  _symmetry_equiv_pos_site_id
 _symmetry_equiv_pos_as_xyz
 1  'x, y, z'
loop_
 _atom_site_type_symbol
 _atom_site_label
 _atom_site_symmetry_multiplicity
 _atom_site_fract_x
 _atom_site_fract_y
 _atom_site_fract_z
 _atom_site_fract_occupancy
 F  F1  1  0.33450  0.50166  0.83284  1
 F  F2  1  0.66881  0.50166  0.16716  1
 O  O1  1  0.00161  0.50161  0.50000  1
 W  W1  1  0.50165  0.00165  0.50000  1
