CIF file written using JARVIS-Tools package.
data_HoGaCo
_symmetry_space_group_name_H-M  'Pnma'
_cell_length_a       4.38109
_cell_length_b       6.80829
_cell_length_c       6.97352
_cell_angle_alpha    90
_cell_angle_beta     90
_cell_angle_gamma    90

_symmetry_Int_Tables_number  62
_chemical_formula_structural  HoGaCo
_chemical_formula_sum  Ho4Ga4Co4
_cell_volume  208.00425220127008
_cell_formula_units_Z  4
loop_
  _symmetry_equiv_pos_site_id
 _symmetry_equiv_pos_as_xyz
 1  'x, y, z'
loop_
 _atom_site_type_symbol
 _atom_site_label
 _atom_site_symmetry_multiplicity
 _atom_site_fract_x
 _atom_site_fract_y
 _atom_site_fract_z
 _atom_site_fract_occupancy
 Co  Co1  1  0.25000  0.93632  0.34482  1
 Co  Co2  1  0.25000  0.56368  0.84482  1
 Co  Co3  1  0.75000  0.06368  0.65518  1
 Co  Co4  1  0.75000  0.43632  0.15518  1
 Ga  Ga1  1  0.25000  0.89350  0.69587  1
 Ga  Ga2  1  0.25000  0.60650  0.19587  1
 Ga  Ga3  1  0.75000  0.10650  0.30413  1
 Ga  Ga4  1  0.75000  0.39350  0.80413  1
 Ho  Ho1  1  0.25000  0.30447  0.52323  1
 Ho  Ho2  1  0.25000  0.19553  0.02323  1
 Ho  Ho3  1  0.75000  0.69553  0.47677  1
 Ho  Ho4  1  0.75000  0.80447  0.97677  1
