CIF file written using JARVIS-Tools package.
data_Co2Re5B4
_symmetry_space_group_name_H-M  'Cmmm'
_cell_length_a       5.39475
_cell_length_b       5.39475
_cell_length_c       8.10094
_cell_angle_alpha    90
_cell_angle_beta     90
_cell_angle_gamma    89.8791

_symmetry_Int_Tables_number  65
_chemical_formula_structural  Co2Re5B4
_chemical_formula_sum  Co4Re0B8
_cell_volume  235.7638704423025
_cell_formula_units_Z  2
loop_
  _symmetry_equiv_pos_site_id
 _symmetry_equiv_pos_as_xyz
 1  'x, y, z'
loop_
 _atom_site_type_symbol
 _atom_site_label
 _atom_site_symmetry_multiplicity
 _atom_site_fract_x
 _atom_site_fract_y
 _atom_site_fract_z
 _atom_site_fract_occupancy
 B  B1  1  0.50000  0.00000  0.13130  1
 B  B2  1  0.00000  0.50000  0.86870  1
 B  B3  1  0.37984  0.62016  0.50000  1
 B  B4  1  0.62016  0.37984  0.50000  1
 B  B5  1  0.12320  0.12320  0.50000  1
 B  B6  1  0.87680  0.87680  0.50000  1
 B  B7  1  0.00000  0.50000  0.13130  1
 B  B8  1  0.50000  0.00000  0.86870  1
 Co  Co1  1  0.00000  0.50000  0.50000  1
 Co  Co2  1  0.15850  0.15850  0.00000  1
 Co  Co3  1  0.84150  0.84150  0.00000  1
 Co  Co4  1  0.50000  0.00000  0.50000  1
 Re  Re1  1  0.17388  0.82612  0.71615  1
 Re  Re2  1  0.67766  0.67766  0.28176  1
 Re  Re3  1  0.32234  0.32234  0.71824  1
 Re  Re4  1  0.67766  0.67766  0.71824  1
 Re  Re5  1  0.32234  0.32234  0.28176  1
 Re  Re6  1  0.82612  0.17388  0.28385  1
 Re  Re7  1  0.66381  0.33619  0.00000  1
 Re  Re8  1  0.33619  0.66381  0.00000  1
 Re  Re9  1  0.17388  0.82612  0.28385  1
 Re  Re10  1  0.82612  0.17388  0.71615  1
