CIF file written using JARVIS-Tools package.
data_Mg2Mn3NiS8
_symmetry_space_group_name_H-M  'R-3m'
_cell_length_a       7.11741
_cell_length_b       7.11724
_cell_length_c       7.11738
_cell_angle_alpha    59.133
_cell_angle_beta     59.1313
_cell_angle_gamma    59.1325

_symmetry_Int_Tables_number  166
_chemical_formula_structural  Mg2Mn3NiS8
_chemical_formula_sum  Mg2Mn3NiS8
_cell_volume  249.89813197898792
_cell_formula_units_Z  1
loop_
  _symmetry_equiv_pos_site_id
 _symmetry_equiv_pos_as_xyz
 1  'x, y, z'
loop_
 _atom_site_type_symbol
 _atom_site_label
 _atom_site_symmetry_multiplicity
 _atom_site_fract_x
 _atom_site_fract_y
 _atom_site_fract_z
 _atom_site_fract_occupancy
 Mg  Mg1  1  0.87673  0.87672  0.87673  1
 Mg  Mg2  1  0.12327  0.12328  0.12327  1
 Mn  Mn1  1  0.50000  0.50000  -0.00000  1
 Mn  Mn2  1  0.00000  0.50000  0.50000  1
 Mn  Mn3  1  0.50000  -0.00000  0.50000  1
 Ni  Ni1  1  0.50000  0.50000  0.50000  1
 S  S1  1  0.73796  0.73798  0.73797  1
 S  S2  1  0.26362  0.26364  0.70496  1
 S  S3  1  0.26362  0.70496  0.26363  1
 S  S4  1  0.70496  0.26363  0.26362  1
 S  S5  1  0.73638  0.29503  0.73637  1
 S  S6  1  0.29504  0.73637  0.73638  1
 S  S7  1  0.26204  0.26202  0.26204  1
 S  S8  1  0.73639  0.73636  0.29504  1
