CIF file written using JARVIS-Tools package.
data_NaCu2S2O10
_symmetry_space_group_name_H-M  'C2/m'
_cell_length_a       5.21281
_cell_length_b       5.21281
_cell_length_c       7.82822
_cell_angle_alpha    66.4102
_cell_angle_beta     66.4102
_cell_angle_gamma    69.6424

_symmetry_Int_Tables_number  12
_chemical_formula_structural  NaCu2S2O10
_chemical_formula_sum  NaCu2S2O0
_cell_volume  174.1321583870766
_cell_formula_units_Z  1
loop_
  _symmetry_equiv_pos_site_id
 _symmetry_equiv_pos_as_xyz
 1  'x, y, z'
loop_
 _atom_site_type_symbol
 _atom_site_label
 _atom_site_symmetry_multiplicity
 _atom_site_fract_x
 _atom_site_fract_y
 _atom_site_fract_z
 _atom_site_fract_occupancy
 Cu  Cu1  1  0.00000  0.50000  0.00000  1
 Cu  Cu2  1  0.50000  0.00000  0.00000  1
 Na  Na1  1  0.50000  0.50000  0.50000  1
 O  O1  1  0.16992  0.16992  0.81844  1
 O  O2  1  0.83008  0.83008  0.18156  1
 O  O3  1  0.20188  0.20188  0.49195  1
 O  O4  1  0.79812  0.79812  0.50805  1
 O  O5  1  0.75211  0.16984  0.74848  1
 O  O6  1  0.16984  0.75211  0.74848  1
 O  O7  1  0.24789  0.83016  0.25152  1
 O  O8  1  0.83016  0.24789  0.25152  1
 O  O9  1  0.65622  0.65622  0.95369  1
 O  O10  1  0.34378  0.34378  0.04631  1
 S  S1  1  0.07857  0.07857  0.70058  1
 S  S2  1  0.92143  0.92143  0.29942  1
