CIF file written using JARVIS-Tools package.
data_YOF2
_symmetry_space_group_name_H-M  'Immm'
_cell_length_a       4.79684
_cell_length_b       4.79684
_cell_length_c       4.79684
_cell_angle_alpha    138.143
_cell_angle_beta     70.6385
_cell_angle_gamma    125.925

_symmetry_Int_Tables_number  71
_chemical_formula_structural  YOF2
_chemical_formula_sum  YOF2
_cell_volume  58.49401798002732
_cell_formula_units_Z  1
loop_
  _symmetry_equiv_pos_site_id
 _symmetry_equiv_pos_as_xyz
 1  'x, y, z'
loop_
 _atom_site_type_symbol
 _atom_site_label
 _atom_site_symmetry_multiplicity
 _atom_site_fract_x
 _atom_site_fract_y
 _atom_site_fract_z
 _atom_site_fract_occupancy
 F  F1  1  0.32476  0.50162  0.82314  1
 F  F2  1  0.67848  0.50162  0.17686  1
 O  O1  1  0.00167  0.50167  0.50000  1
 Y  Y1  1  0.50167  0.00167  0.50000  1
