CIF file written using JARVIS-Tools package.
data_MgCrGaS4
_symmetry_space_group_name_H-M  'Imma'
_cell_length_a       7.23937
_cell_length_b       7.2731
_cell_length_c       7.2731
_cell_angle_alpha    59.6203
_cell_angle_beta     60.1532
_cell_angle_gamma    60.1532

_symmetry_Int_Tables_number  74
_chemical_formula_structural  MgCrGaS4
_chemical_formula_sum  Mg2Cr2Ga2S8
_cell_volume  270.61943363271695
_cell_formula_units_Z  2
loop_
  _symmetry_equiv_pos_site_id
 _symmetry_equiv_pos_as_xyz
 1  'x, y, z'
loop_
 _atom_site_type_symbol
 _atom_site_label
 _atom_site_symmetry_multiplicity
 _atom_site_fract_x
 _atom_site_fract_y
 _atom_site_fract_z
 _atom_site_fract_occupancy
 Cr  Cr1  1  0.50000  0.50000  -0.00000  1
 Cr  Cr2  1  0.50000  -0.00000  0.50000  1
 Ga  Ga1  1  0.50000  0.50000  0.50000  1
 Ga  Ga2  1  0.00000  0.50000  0.50000  1
 Mg  Mg1  1  0.87386  0.87614  0.87614  1
 Mg  Mg2  1  0.12614  0.12386  0.12386  1
 S  S1  1  0.73308  0.74075  0.74075  1
 S  S2  1  0.26637  0.25247  0.71479  1
 S  S3  1  0.26637  0.71479  0.25247  1
 S  S4  1  0.71458  0.25925  0.25925  1
 S  S5  1  0.73363  0.28521  0.74753  1
 S  S6  1  0.28542  0.74075  0.74075  1
 S  S7  1  0.26692  0.25925  0.25925  1
 S  S8  1  0.73363  0.74753  0.28521  1
