CIF file written using JARVIS-Tools package.
data_Y2SO2
_symmetry_space_group_name_H-M  'Imm2'
_cell_length_a       7.58031
_cell_length_b       7.58028
_cell_length_c       3.5259
_cell_angle_alpha    76.5519
_cell_angle_beta     76.5512
_cell_angle_gamma    25.4885

_symmetry_Int_Tables_number  44
_chemical_formula_structural  Y2SO2
_chemical_formula_sum  Y2SO2
_cell_volume  84.67053131860055
_cell_formula_units_Z  1
loop_
  _symmetry_equiv_pos_site_id
 _symmetry_equiv_pos_as_xyz
 1  'x, y, z'
loop_
 _atom_site_type_symbol
 _atom_site_label
 _atom_site_symmetry_multiplicity
 _atom_site_fract_x
 _atom_site_fract_y
 _atom_site_fract_z
 _atom_site_fract_occupancy
 O  O1  1  0.26416  0.26416  0.73584  1
 O  O2  1  -0.09755  -0.09755  0.09755  1
 S  S1  1  0.08442  0.08442  0.41558  1
 Y  Y1  1  0.75593  0.75592  0.24407  1
 Y  Y2  1  0.49304  0.49304  0.00696  1
