CIF file written using JARVIS-Tools package.
data_Mg3Bi2N4
_symmetry_space_group_name_H-M  'C2/c'
_cell_length_a       7.13462
_cell_length_b       10.4134
_cell_length_c       5.44686
_cell_angle_alpha    90.0001
_cell_angle_beta     97.5193
_cell_angle_gamma    136.868

_symmetry_Int_Tables_number  15
_chemical_formula_structural  Mg3Bi2N4
_chemical_formula_sum  Mg6Bi4N8
_cell_volume  271.5557289031352
_cell_formula_units_Z  2
loop_
  _symmetry_equiv_pos_site_id
 _symmetry_equiv_pos_as_xyz
 1  'x, y, z'
loop_
 _atom_site_type_symbol
 _atom_site_label
 _atom_site_symmetry_multiplicity
 _atom_site_fract_x
 _atom_site_fract_y
 _atom_site_fract_z
 _atom_site_fract_occupancy
 Bi  Bi1  1  0.64571  0.20656  0.69539  1
 Bi  Bi2  1  0.35429  0.56085  0.80461  1
 Bi  Bi3  1  0.35429  0.79344  0.30461  1
 Bi  Bi4  1  0.64571  0.43915  0.19539  1
 Mg  Mg1  1  -0.00000  0.27394  0.25000  1
 Mg  Mg2  1  0.22100  0.02980  0.14288  1
 Mg  Mg3  1  0.22100  0.19120  0.64288  1
 Mg  Mg4  1  0.77900  0.97020  0.85712  1
 Mg  Mg5  1  0.77900  0.80880  0.35712  1
 Mg  Mg6  1  0.00000  0.72606  0.75000  1
 N  N1  1  0.35997  0.57621  0.38443  1
 N  N2  1  0.35997  0.78376  0.88443  1
 N  N3  1  0.18700  0.97188  0.53269  1
 N  N4  1  0.81300  0.78488  0.96731  1
 N  N5  1  0.81300  0.02812  0.46731  1
 N  N6  1  0.18700  0.21512  0.03269  1
 N  N7  1  0.64003  0.21624  0.11557  1
 N  N8  1  0.64003  0.42379  0.61557  1
