CIF file written using JARVIS-Tools package.
data_Mg2Mn3CrS8
_symmetry_space_group_name_H-M  'R-3m'
_cell_length_a       7.23348
_cell_length_b       7.25541
_cell_length_c       7.23337
_cell_angle_alpha    60.0995
_cell_angle_beta     60.0001
_cell_angle_gamma    60.0993

_symmetry_Int_Tables_number  166
_chemical_formula_structural  Mg2Mn3CrS8
_chemical_formula_sum  Mg2Mn3CrS8
_cell_volume  268.8343875848135
_cell_formula_units_Z  1
loop_
  _symmetry_equiv_pos_site_id
 _symmetry_equiv_pos_as_xyz
 1  'x, y, z'
loop_
 _atom_site_type_symbol
 _atom_site_label
 _atom_site_symmetry_multiplicity
 _atom_site_fract_x
 _atom_site_fract_y
 _atom_site_fract_z
 _atom_site_fract_occupancy
 Cr  Cr1  1  0.50000  0.00000  0.50000  1
 Mg  Mg1  1  0.87328  0.88018  0.87326  1
 Mg  Mg2  1  0.12672  0.11982  0.12674  1
 Mn  Mn1  1  0.50000  0.50000  0.50000  1
 Mn  Mn2  1  0.49999  0.49999  -0.00000  1
 Mn  Mn3  1  -0.00000  0.50001  0.50000  1
 S  S1  1  0.73576  0.74394  0.73578  1
 S  S2  1  0.26424  0.25605  0.71548  1
 S  S3  1  0.26275  0.71175  0.26275  1
 S  S4  1  0.71547  0.25605  0.26424  1
 S  S5  1  0.73726  0.28824  0.73724  1
 S  S6  1  0.28453  0.74395  0.73575  1
 S  S7  1  0.26423  0.25606  0.26424  1
 S  S8  1  0.73576  0.74395  0.28452  1
