CIF file written using JARVIS-Tools package.
data_PrMo6S8
_symmetry_space_group_name_H-M  'R-3'
_cell_length_a       6.54515
_cell_length_b       6.54515
_cell_length_c       6.54515
_cell_angle_alpha    88.7453
_cell_angle_beta     88.7453
_cell_angle_gamma    88.7453

_symmetry_Int_Tables_number  148
_chemical_formula_structural  PrMo6S8
_chemical_formula_sum  PrMo6S8
_cell_volume  280.1891589414071
_cell_formula_units_Z  1
loop_
  _symmetry_equiv_pos_site_id
 _symmetry_equiv_pos_as_xyz
 1  'x, y, z'
loop_
 _atom_site_type_symbol
 _atom_site_label
 _atom_site_symmetry_multiplicity
 _atom_site_fract_x
 _atom_site_fract_y
 _atom_site_fract_z
 _atom_site_fract_occupancy
 Mo  Mo1  1  0.77261  0.57993  0.43716  1
 Mo  Mo2  1  0.43716  0.77261  0.57993  1
 Mo  Mo3  1  0.57993  0.43716  0.77261  1
 Mo  Mo4  1  0.22739  0.42007  0.56284  1
 Mo  Mo5  1  0.56284  0.22739  0.42007  1
 Mo  Mo6  1  0.42007  0.56284  0.22739  1
 Pr  Pr1  1  0.00000  0.00000  0.00000  1
 S  S1  1  0.75663  0.75663  0.75663  1
 S  S2  1  0.24337  0.24337  0.24337  1
 S  S3  1  0.24873  0.62488  0.87477  1
 S  S4  1  0.87477  0.24873  0.62488  1
 S  S5  1  0.62488  0.87477  0.24873  1
 S  S6  1  0.75127  0.37512  0.12523  1
 S  S7  1  0.12523  0.75127  0.37512  1
 S  S8  1  0.37512  0.12523  0.75127  1
