CIF file written using JARVIS-Tools package.
data_SmMo6Se8
_symmetry_space_group_name_H-M  'R-3'
_cell_length_a       6.79544
_cell_length_b       6.79543
_cell_length_c       6.79544
_cell_angle_alpha    88.8228
_cell_angle_beta     88.8228
_cell_angle_gamma    88.8228

_symmetry_Int_Tables_number  148
_chemical_formula_structural  SmMo6Se8
_chemical_formula_sum  SmMo6Se8
_cell_volume  313.60289670152747
_cell_formula_units_Z  1
loop_
  _symmetry_equiv_pos_site_id
 _symmetry_equiv_pos_as_xyz
 1  'x, y, z'
loop_
 _atom_site_type_symbol
 _atom_site_label
 _atom_site_symmetry_multiplicity
 _atom_site_fract_x
 _atom_site_fract_y
 _atom_site_fract_z
 _atom_site_fract_occupancy
 Mo  Mo1  1  0.76375  0.57624  0.43988  1
 Mo  Mo2  1  0.43988  0.76375  0.57624  1
 Mo  Mo3  1  0.57624  0.43988  0.76375  1
 Mo  Mo4  1  0.23625  0.42376  0.56012  1
 Mo  Mo5  1  0.56012  0.23625  0.42376  1
 Mo  Mo6  1  0.42376  0.56012  0.23625  1
 Se  Se1  1  0.76079  0.76079  0.76079  1
 Se  Se2  1  0.23921  0.23921  0.23921  1
 Se  Se3  1  0.24280  0.62680  0.87981  1
 Se  Se4  1  0.87981  0.24280  0.62680  1
 Se  Se5  1  0.62680  0.87981  0.24280  1
 Se  Se6  1  0.75720  0.37320  0.12019  1
 Se  Se7  1  0.12019  0.75720  0.37320  1
 Se  Se8  1  0.37320  0.12019  0.75720  1
 Sm  Sm1  1  0.00000  0.00000  0.00000  1
