CIF file written using JARVIS-Tools package.
data_Cr5Se8
_symmetry_space_group_name_H-M  'C2/m'
_cell_length_a       6.81665
_cell_length_b       6.81666
_cell_length_c       8.43219
_cell_angle_alpha    55.4797
_cell_angle_beta     55.4797
_cell_angle_gamma    64.2653

_symmetry_Int_Tables_number  12
_chemical_formula_structural  Cr5Se8
_chemical_formula_sum  Cr5Se8
_cell_volume  262.2717846910868
_cell_formula_units_Z  1
loop_
  _symmetry_equiv_pos_site_id
 _symmetry_equiv_pos_as_xyz
 1  'x, y, z'
loop_
 _atom_site_type_symbol
 _atom_site_label
 _atom_site_symmetry_multiplicity
 _atom_site_fract_x
 _atom_site_fract_y
 _atom_site_fract_z
 _atom_site_fract_occupancy
 Cr  Cr1  1  0.00000  0.00000  0.00000  1
 Cr  Cr2  1  0.27021  0.27021  0.98715  1
 Cr  Cr3  1  0.72979  0.72979  0.01285  1
 Cr  Cr4  1  0.27157  0.72843  0.50000  1
 Cr  Cr5  1  0.72843  0.27157  0.50000  1
 Se  Se1  1  0.97499  0.97499  0.32530  1
 Se  Se2  1  0.02501  0.02501  0.67470  1
 Se  Se3  1  0.45080  0.45080  0.33391  1
 Se  Se4  1  0.54920  0.54920  0.66609  1
 Se  Se5  1  0.03317  0.54447  0.17100  1
 Se  Se6  1  0.54447  0.03317  0.17100  1
 Se  Se7  1  0.96683  0.45553  0.82900  1
 Se  Se8  1  0.45553  0.96683  0.82900  1
