CIF file written using JARVIS-Tools package.
data_BeCo2O4
_symmetry_space_group_name_H-M  'Pnma'
_cell_length_a       2.89047
_cell_length_b       8.98613
_cell_length_c       9.26945
_cell_angle_alpha    90
_cell_angle_beta     90
_cell_angle_gamma    90

_symmetry_Int_Tables_number  62
_chemical_formula_structural  BeCo2O4
_chemical_formula_sum  Be4Co8O6
_cell_volume  240.76656485579497
_cell_formula_units_Z  4
loop_
  _symmetry_equiv_pos_site_id
 _symmetry_equiv_pos_as_xyz
 1  'x, y, z'
loop_
 _atom_site_type_symbol
 _atom_site_label
 _atom_site_symmetry_multiplicity
 _atom_site_fract_x
 _atom_site_fract_y
 _atom_site_fract_z
 _atom_site_fract_occupancy
 Be  Be1  1  0.75000  0.64490  0.10682  1
 Be  Be2  1  0.25000  0.85510  0.60682  1
 Be  Be3  1  0.75000  0.14490  0.39318  1
 Be  Be4  1  0.25000  0.35510  0.89318  1
 Co  Co1  1  0.25000  0.87059  0.29514  1
 Co  Co2  1  0.75000  0.62941  0.79514  1
 Co  Co3  1  0.25000  0.88189  0.92809  1
 Co  Co4  1  0.75000  0.61811  0.42809  1
 Co  Co5  1  0.75000  0.12941  0.70486  1
 Co  Co6  1  0.25000  0.38189  0.57191  1
 Co  Co7  1  0.25000  0.37059  0.20486  1
 Co  Co8  1  0.75000  0.11811  0.07191  1
 O  O1  1  0.75000  0.73406  0.24884  1
 O  O2  1  0.75000  0.51737  0.61459  1
 O  O3  1  0.25000  0.52329  0.87456  1
 O  O4  1  0.25000  0.76594  0.74884  1
 O  O5  1  0.75000  0.74602  0.96986  1
 O  O6  1  0.25000  0.75398  0.46986  1
 O  O7  1  0.75000  0.47671  0.12544  1
 O  O8  1  0.75000  0.23406  0.25116  1
 O  O9  1  0.75000  0.97671  0.37456  1
 O  O10  1  0.25000  0.26594  0.75116  1
 O  O11  1  0.75000  0.24602  0.53014  1
 O  O12  1  0.25000  0.25398  0.03014  1
 O  O13  1  0.25000  0.02329  0.62544  1
 O  O14  1  0.75000  0.01737  0.88541  1
 O  O15  1  0.25000  0.98263  0.11459  1
 O  O16  1  0.25000  0.48263  0.38541  1
