CIF file written using JARVIS-Tools package.
data_ZrTlF3
_symmetry_space_group_name_H-M  'Cm'
_cell_length_a       4.41781
_cell_length_b       4.41781
_cell_length_c       4.4177
_cell_angle_alpha    97.993
_cell_angle_beta     97.993
_cell_angle_gamma    82.1629

_symmetry_Int_Tables_number  8
_chemical_formula_structural  ZrTlF3
_chemical_formula_sum  ZrTlF3
_cell_volume  83.94902753072735
_cell_formula_units_Z  1
loop_
  _symmetry_equiv_pos_site_id
 _symmetry_equiv_pos_as_xyz
 1  'x, y, z'
loop_
 _atom_site_type_symbol
 _atom_site_label
 _atom_site_symmetry_multiplicity
 _atom_site_fract_x
 _atom_site_fract_y
 _atom_site_fract_z
 _atom_site_fract_occupancy
 F  F1  1  -0.00130  0.49858  0.48760  1
 F  F2  1  0.49783  0.49783  0.98863  1
 F  F3  1  0.49858  -0.00130  0.48760  1
 Tl  Tl1  1  -0.00179  -0.00179  -0.01243  1
 Zr  Zr1  1  0.49876  0.49876  0.48874  1
