CIF file written using JARVIS-Tools package.
data_TbAl8Cu4
_symmetry_space_group_name_H-M  'I4/mmm'
_cell_length_a       6.72839
_cell_length_b       6.72839
_cell_length_c       6.72839
_cell_angle_alpha    98.434
_cell_angle_beta     98.434
_cell_angle_gamma    134.964

_symmetry_Int_Tables_number  139
_chemical_formula_structural  TbAl8Cu4
_chemical_formula_sum  TbAl8Cu4
_cell_volume  199.09064745529733
_cell_formula_units_Z  1
loop_
  _symmetry_equiv_pos_site_id
 _symmetry_equiv_pos_as_xyz
 1  'x, y, z'
loop_
 _atom_site_type_symbol
 _atom_site_label
 _atom_site_symmetry_multiplicity
 _atom_site_fract_x
 _atom_site_fract_y
 _atom_site_fract_z
 _atom_site_fract_occupancy
 Al  Al1  1  -0.00000  0.34750  0.34750  1
 Al  Al2  1  0.00000  0.65250  0.65250  1
 Al  Al3  1  0.65250  0.00000  0.65250  1
 Al  Al4  1  0.34750  0.00000  0.34750  1
 Al  Al5  1  0.50000  0.28098  0.78098  1
 Al  Al6  1  0.50000  0.71902  0.21902  1
 Al  Al7  1  0.71902  0.50000  0.21902  1
 Al  Al8  1  0.28098  0.50000  0.78098  1
 Cu  Cu1  1  -0.00000  0.00000  0.50000  1
 Cu  Cu2  1  0.50000  0.50000  0.50000  1
 Cu  Cu3  1  0.50000  -0.00000  0.00000  1
 Cu  Cu4  1  -0.00000  0.50000  0.00000  1
 Tb  Tb1  1  0.00000  0.00000  0.00000  1
