CIF file written using JARVIS-Tools package.
data_YGaNi
_symmetry_space_group_name_H-M  'Pnma'
_cell_length_a       4.28778
_cell_length_b       6.88496
_cell_length_c       7.3121
_cell_angle_alpha    90
_cell_angle_beta     90
_cell_angle_gamma    90

_symmetry_Int_Tables_number  62
_chemical_formula_structural  YGaNi
_chemical_formula_sum  Y4Ga4Ni4
_cell_volume  215.86228663371392
_cell_formula_units_Z  4
loop_
  _symmetry_equiv_pos_site_id
 _symmetry_equiv_pos_as_xyz
 1  'x, y, z'
loop_
 _atom_site_type_symbol
 _atom_site_label
 _atom_site_symmetry_multiplicity
 _atom_site_fract_x
 _atom_site_fract_y
 _atom_site_fract_z
 _atom_site_fract_occupancy
 Ga  Ga1  1  0.25000  0.18210  0.41958  1
 Ga  Ga2  1  0.25000  0.68210  0.08042  1
 Ga  Ga3  1  0.75000  0.81790  0.58042  1
 Ga  Ga4  1  0.75000  0.31790  0.91958  1
 Ni  Ni1  1  0.25000  0.79178  0.40880  1
 Ni  Ni2  1  0.25000  0.29178  0.09120  1
 Ni  Ni3  1  0.75000  0.20822  0.59120  1
 Ni  Ni4  1  0.75000  0.70822  0.90880  1
 Y  Y1  1  0.25000  0.01649  0.80060  1
 Y  Y2  1  0.25000  0.51649  0.69940  1
 Y  Y3  1  0.75000  0.98351  0.19940  1
 Y  Y4  1  0.75000  0.48351  0.30060  1
