CIF file written using JARVIS-Tools package.
data_V2O5
_symmetry_space_group_name_H-M  'P-1'
_cell_length_a       6.5716
_cell_length_b       6.71913
_cell_length_c       4.3134
_cell_angle_alpha    90.0258
_cell_angle_beta     90.92
_cell_angle_gamma    75.3814

_symmetry_Int_Tables_number  2
_chemical_formula_structural  V2O5
_chemical_formula_sum  V4O0
_cell_volume  184.2689942888281
_cell_formula_units_Z  2
loop_
  _symmetry_equiv_pos_site_id
 _symmetry_equiv_pos_as_xyz
 1  'x, y, z'
loop_
 _atom_site_type_symbol
 _atom_site_label
 _atom_site_symmetry_multiplicity
 _atom_site_fract_x
 _atom_site_fract_y
 _atom_site_fract_z
 _atom_site_fract_occupancy
 O  O1  1  0.96221  0.79807  0.49634  1
 O  O2  1  0.03779  0.20193  0.50366  1
 O  O3  1  0.38404  0.88792  0.50194  1
 O  O4  1  0.61596  0.11208  0.49806  1
 O  O5  1  0.23258  0.70719  0.98321  1
 O  O6  1  0.76742  0.29281  0.01679  1
 O  O7  1  0.68966  0.81979  0.02310  1
 O  O8  1  0.31034  0.18021  0.97690  1
 O  O9  1  0.31309  0.44417  0.50049  1
 O  O10  1  0.68691  0.55583  0.49951  1
 V  V1  1  0.22859  0.70577  0.60834  1
 V  V2  1  0.77141  0.29423  0.39166  1
 V  V3  1  0.69062  0.81788  0.39650  1
 V  V4  1  0.30938  0.18212  0.60350  1
