CIF file written using JARVIS-Tools package.
data_ErGa6
_symmetry_space_group_name_H-M  'P4/nbm'
_cell_length_a       5.97052
_cell_length_b       5.97052
_cell_length_c       7.52569
_cell_angle_alpha    90
_cell_angle_beta     90
_cell_angle_gamma    90

_symmetry_Int_Tables_number  125
_chemical_formula_structural  ErGa6
_chemical_formula_sum  Er2Ga2
_cell_volume  268.2694858460178
_cell_formula_units_Z  2
loop_
  _symmetry_equiv_pos_site_id
 _symmetry_equiv_pos_as_xyz
 1  'x, y, z'
loop_
 _atom_site_type_symbol
 _atom_site_label
 _atom_site_symmetry_multiplicity
 _atom_site_fract_x
 _atom_site_fract_y
 _atom_site_fract_z
 _atom_site_fract_occupancy
 Er  Er1  1  0.50000  0.00000  0.00000  1
 Er  Er2  1  0.00000  0.50000  0.00000  1
 Ga  Ga1  1  0.50000  0.50000  0.16153  1
 Ga  Ga2  1  0.00000  0.00000  0.16153  1
 Ga  Ga3  1  0.00000  0.00000  0.83847  1
 Ga  Ga4  1  0.50000  0.50000  0.83847  1
 Ga  Ga5  1  0.82348  0.67652  0.35131  1
 Ga  Ga6  1  0.32348  0.82348  0.35131  1
 Ga  Ga7  1  0.67652  0.17652  0.35131  1
 Ga  Ga8  1  0.17652  0.32348  0.35131  1
 Ga  Ga9  1  0.67652  0.82348  0.64869  1
 Ga  Ga10  1  0.17652  0.67652  0.64869  1
 Ga  Ga11  1  0.82348  0.32348  0.64869  1
 Ga  Ga12  1  0.32348  0.17652  0.64869  1
