CIF file written using JARVIS-Tools package.
data_Dy2CdTe4
_symmetry_space_group_name_H-M  'Fd-3m'
_cell_length_a       8.89404
_cell_length_b       8.89404
_cell_length_c       8.89404
_cell_angle_alpha    60
_cell_angle_beta     60
_cell_angle_gamma    60

_symmetry_Int_Tables_number  227
_chemical_formula_structural  Dy2CdTe4
_chemical_formula_sum  Dy4Cd2Te8
_cell_volume  497.4875140318023
_cell_formula_units_Z  2
loop_
  _symmetry_equiv_pos_site_id
 _symmetry_equiv_pos_as_xyz
 1  'x, y, z'
loop_
 _atom_site_type_symbol
 _atom_site_label
 _atom_site_symmetry_multiplicity
 _atom_site_fract_x
 _atom_site_fract_y
 _atom_site_fract_z
 _atom_site_fract_occupancy
 Cd  Cd1  1  0.25000  0.25000  0.25000  1
 Cd  Cd2  1  0.00000  0.00000  0.00000  1
 Dy  Dy1  1  0.12500  0.62500  0.62500  1
 Dy  Dy2  1  0.62500  0.12500  0.62500  1
 Dy  Dy3  1  0.62500  0.62500  0.12500  1
 Dy  Dy4  1  0.62500  0.62500  0.62500  1
 Te  Te1  1  0.85767  0.38078  0.38078  1
 Te  Te2  1  0.38078  0.85767  0.38078  1
 Te  Te3  1  0.38078  0.38078  0.85767  1
 Te  Te4  1  0.38078  0.38078  0.38078  1
 Te  Te5  1  0.39233  0.86922  0.86922  1
 Te  Te6  1  0.86922  0.39233  0.86922  1
 Te  Te7  1  0.86922  0.86922  0.39233  1
 Te  Te8  1  0.86922  0.86922  0.86922  1
