CIF file written using JARVIS-Tools package.
data_Mg2B2AsIr5
_symmetry_space_group_name_H-M  'P4/mbm'
_cell_length_a       9.48738
_cell_length_b       9.48738
_cell_length_c       2.99154
_cell_angle_alpha    90
_cell_angle_beta     90
_cell_angle_gamma    90

_symmetry_Int_Tables_number  127
_chemical_formula_structural  Mg2B2AsIr5
_chemical_formula_sum  Mg4B4As2Ir0
_cell_volume  269.2698376892484
_cell_formula_units_Z  2
loop_
  _symmetry_equiv_pos_site_id
 _symmetry_equiv_pos_as_xyz
 1  'x, y, z'
loop_
 _atom_site_type_symbol
 _atom_site_label
 _atom_site_symmetry_multiplicity
 _atom_site_fract_x
 _atom_site_fract_y
 _atom_site_fract_z
 _atom_site_fract_occupancy
 As  As1  1  0.50000  0.50000  0.00000  1
 As  As2  1  0.00000  0.00000  0.00000  1
 B  B1  1  0.62522  0.12522  0.00000  1
 B  B2  1  0.37478  0.87478  0.00000  1
 B  B3  1  0.12522  0.37478  0.00000  1
 B  B4  1  0.87478  0.62522  0.00000  1
 Ir  Ir1  1  0.42662  0.71583  0.50000  1
 Ir  Ir2  1  0.78417  0.07338  0.50000  1
 Ir  Ir3  1  0.21583  0.92662  0.50000  1
 Ir  Ir4  1  0.28417  0.42662  0.50000  1
 Ir  Ir5  1  0.71583  0.57338  0.50000  1
 Ir  Ir6  1  0.00000  0.50000  0.50000  1
 Ir  Ir7  1  0.92662  0.78417  0.50000  1
 Ir  Ir8  1  0.07338  0.21583  0.50000  1
 Ir  Ir9  1  0.57338  0.28417  0.50000  1
 Ir  Ir10  1  0.50000  0.00000  0.50000  1
 Mg  Mg1  1  0.67488  0.82512  0.00000  1
 Mg  Mg2  1  0.32512  0.17488  0.00000  1
 Mg  Mg3  1  0.17488  0.67488  0.00000  1
 Mg  Mg4  1  0.82512  0.32512  0.00000  1
