CIF file written using JARVIS-Tools package.
data_CaZnSiO5
_symmetry_space_group_name_H-M  'Cc'
_cell_length_a       8.4374
_cell_length_b       8.4374
_cell_length_c       5.41463
_cell_angle_alpha    86.2356
_cell_angle_beta     86.2356
_cell_angle_gamma    145.59

_symmetry_Int_Tables_number  9
_chemical_formula_structural  CaZnSiO5
_chemical_formula_sum  Ca2Zn2Si2O0
_cell_volume  212.39867367017058
_cell_formula_units_Z  2
loop_
  _symmetry_equiv_pos_site_id
 _symmetry_equiv_pos_as_xyz
 1  'x, y, z'
loop_
 _atom_site_type_symbol
 _atom_site_label
 _atom_site_symmetry_multiplicity
 _atom_site_fract_x
 _atom_site_fract_y
 _atom_site_fract_z
 _atom_site_fract_occupancy
 Ca  Ca1  1  0.22551  0.08398  0.11275  1
 Ca  Ca2  1  0.08398  0.22551  0.61275  1
 O  O1  1  0.78787  0.83639  0.36588  1
 O  O2  1  0.83639  0.78787  0.86588  1
 O  O3  1  0.70300  0.99223  0.92234  1
 O  O4  1  0.99223  0.70300  0.42234  1
 O  O5  1  0.59714  0.17921  0.33938  1
 O  O6  1  0.17921  0.59714  0.83938  1
 O  O7  1  0.55000  0.23290  0.80773  1
 O  O8  1  0.23290  0.55000  0.30773  1
 O  O9  1  0.44147  0.34709  0.43529  1
 O  O10  1  0.34709  0.44147  0.93529  1
 Si  Si1  1  0.65090  0.37622  0.50819  1
 Si  Si2  1  0.37622  0.65090  0.00819  1
 Zn  Zn1  1  0.76882  0.26929  0.99244  1
 Zn  Zn2  1  0.26929  0.76882  0.49244  1
