CIF file written using JARVIS-Tools package.
data_KPH2O4
_symmetry_space_group_name_H-M  'C222_1'
_cell_length_a       7.67643
_cell_length_b       7.67642
_cell_length_c       4.54202
_cell_angle_alpha    90
_cell_angle_beta     90
_cell_angle_gamma    134.657

_symmetry_Int_Tables_number  20
_chemical_formula_structural  KPH2O4
_chemical_formula_sum  K2P2H4O8
_cell_volume  190.38780164102263
_cell_formula_units_Z  2
loop_
  _symmetry_equiv_pos_site_id
 _symmetry_equiv_pos_as_xyz
 1  'x, y, z'
loop_
 _atom_site_type_symbol
 _atom_site_label
 _atom_site_symmetry_multiplicity
 _atom_site_fract_x
 _atom_site_fract_y
 _atom_site_fract_z
 _atom_site_fract_occupancy
 H  H1  1  0.31476  0.31476  0.00000  1
 H  H2  1  0.68524  0.68524  0.50000  1
 H  H3  1  0.68967  0.31033  0.75000  1
 H  H4  1  0.31033  0.68967  0.25000  1
 K  K1  1  0.86875  0.13125  0.25000  1
 K  K2  1  0.13125  0.86875  0.75000  1
 O  O1  1  0.36008  0.22749  0.16389  1
 O  O2  1  0.22749  0.36008  0.83611  1
 O  O3  1  0.63992  0.77251  0.66389  1
 O  O4  1  0.77251  0.63992  0.33611  1
 O  O5  1  0.61224  0.22774  0.50694  1
 O  O6  1  0.22774  0.61224  0.49306  1
 O  O7  1  0.38776  0.77226  0.00694  1
 O  O8  1  0.77226  0.38776  0.99306  1
 P  P1  1  0.62840  0.37160  0.25000  1
 P  P2  1  0.37160  0.62840  0.75000  1
