CIF file written using JARVIS-Tools package.
data_Nd2Ge5Ir3
_symmetry_space_group_name_H-M  'Ibam'
_cell_length_a       8.46957
_cell_length_b       8.46957
_cell_length_c       8.46957
_cell_angle_alpha    137.422
_cell_angle_beta     105.274
_cell_angle_gamma    90.012

_symmetry_Int_Tables_number  72
_chemical_formula_structural  Nd2Ge5Ir3
_chemical_formula_sum  Nd4Ge0Ir6
_cell_volume  378.5864938287076
_cell_formula_units_Z  2
loop_
  _symmetry_equiv_pos_site_id
 _symmetry_equiv_pos_as_xyz
 1  'x, y, z'
loop_
 _atom_site_type_symbol
 _atom_site_label
 _atom_site_symmetry_multiplicity
 _atom_site_fract_x
 _atom_site_fract_y
 _atom_site_fract_z
 _atom_site_fract_occupancy
 Ge  Ge1  1  0.77465  0.52465  0.75000  1
 Ge  Ge2  1  0.25953  0.59972  0.65981  1
 Ge  Ge3  1  0.74047  0.40028  0.34019  1
 Ge  Ge4  1  0.93990  0.09972  0.84019  1
 Ge  Ge5  1  0.06010  0.90028  0.15981  1
 Ge  Ge6  1  0.22535  0.47535  0.25000  1
 Ge  Ge7  1  0.22535  0.97535  0.75000  1
 Ge  Ge8  1  0.50000  0.25000  0.75000  1
 Ge  Ge9  1  0.50000  0.75000  0.25000  1
 Ge  Ge10  1  0.77465  0.02465  0.25000  1
 Ir  Ir1  1  0.24913  0.85898  0.39015  1
 Ir  Ir2  1  0.00000  0.25000  0.25000  1
 Ir  Ir3  1  0.00000  0.75000  0.75000  1
 Ir  Ir4  1  0.46883  0.35898  0.10985  1
 Ir  Ir5  1  0.53117  0.64102  0.89015  1
 Ir  Ir6  1  0.75087  0.14102  0.60985  1
 Nd  Nd1  1  0.59646  0.86735  0.72911  1
 Nd  Nd2  1  0.40354  0.13265  0.27089  1
 Nd  Nd3  1  0.13825  0.36735  0.77089  1
 Nd  Nd4  1  0.86175  0.63265  0.22911  1
