CIF file written using JARVIS-Tools package.
data_In3GaN4
_symmetry_space_group_name_H-M  'P6_3mc'
_cell_length_a       6.95853
_cell_length_b       6.95854
_cell_length_c       5.65106
_cell_angle_alpha    90
_cell_angle_beta     90
_cell_angle_gamma    120

_symmetry_Int_Tables_number  186
_chemical_formula_structural  In3GaN4
_chemical_formula_sum  In6Ga2N8
_cell_volume  236.97145407651698
_cell_formula_units_Z  2
loop_
  _symmetry_equiv_pos_site_id
 _symmetry_equiv_pos_as_xyz
 1  'x, y, z'
loop_
 _atom_site_type_symbol
 _atom_site_label
 _atom_site_symmetry_multiplicity
 _atom_site_fract_x
 _atom_site_fract_y
 _atom_site_fract_z
 _atom_site_fract_occupancy
 Ga  Ga1  1  0.33333  0.66667  0.99965  1
 Ga  Ga2  1  0.66667  0.33333  0.49965  1
 In  In1  1  0.33903  0.16951  0.99858  1
 In  In2  1  0.83049  0.66097  0.99858  1
 In  In3  1  0.83049  0.16951  0.99858  1
 In  In4  1  0.16951  0.83049  0.49858  1
 In  In5  1  0.16951  0.33903  0.49858  1
 In  In6  1  0.66097  0.83049  0.49858  1
 N  N1  1  0.35397  0.17699  0.38592  1
 N  N2  1  0.82301  0.64603  0.38592  1
 N  N3  1  0.82301  0.17699  0.38592  1
 N  N4  1  0.33333  0.66667  0.34684  1
 N  N5  1  0.66667  0.33333  0.84684  1
 N  N6  1  0.17699  0.82301  0.88592  1
 N  N7  1  0.17699  0.35397  0.88592  1
 N  N8  1  0.64603  0.82301  0.88592  1
