CIF file written using JARVIS-Tools package.
data_ZnPS4
_symmetry_space_group_name_H-M  'I222'
_cell_length_a       6.00115
_cell_length_b       6.00115
_cell_length_c       6.00115
_cell_angle_alpha    120.677
_cell_angle_beta     131.884
_cell_angle_gamma    79.7573

_symmetry_Int_Tables_number  23
_chemical_formula_structural  ZnPS4
_chemical_formula_sum  ZnPS4
_cell_volume  133.83985828781314
_cell_formula_units_Z  1
loop_
  _symmetry_equiv_pos_site_id
 _symmetry_equiv_pos_as_xyz
 1  'x, y, z'
loop_
 _atom_site_type_symbol
 _atom_site_label
 _atom_site_symmetry_multiplicity
 _atom_site_fract_x
 _atom_site_fract_y
 _atom_site_fract_z
 _atom_site_fract_occupancy
 P  P1  1  0.00000  0.00000  0.00000  1
 S  S1  1  0.63639  0.66173  0.54870  1
 S  S2  1  0.36361  0.91231  0.02534  1
 S  S3  1  0.88698  0.33827  -0.02534  1
 S  S4  1  0.11302  0.08769  0.45130  1
 Zn  Zn1  1  -0.00000  0.50000  0.50000  1
