CIF file written using JARVIS-Tools package.
data_AgBiS2
_symmetry_space_group_name_H-M  'R-3m'
_cell_length_a       4.04735
_cell_length_b       4.04735
_cell_length_c       19.0012
_cell_angle_alpha    90
_cell_angle_beta     90
_cell_angle_gamma    120

_symmetry_Int_Tables_number  166
_chemical_formula_structural  AgBiS2
_chemical_formula_sum  Ag3Bi3S6
_cell_volume  269.558970311131
_cell_formula_units_Z  3
loop_
  _symmetry_equiv_pos_site_id
 _symmetry_equiv_pos_as_xyz
 1  'x, y, z'
loop_
 _atom_site_type_symbol
 _atom_site_label
 _atom_site_symmetry_multiplicity
 _atom_site_fract_x
 _atom_site_fract_y
 _atom_site_fract_z
 _atom_site_fract_occupancy
 Ag  Ag1  1  0.33333  0.66667  0.66665  1
 Ag  Ag2  1  0.66667  0.33333  0.33335  1
 Ag  Ag3  1  0.00000  0.00000  0.00000  1
 Bi  Bi1  1  0.66667  0.33333  0.83331  1
 Bi  Bi2  1  0.33333  0.66667  0.16669  1
 Bi  Bi3  1  0.00000  0.00000  0.50000  1
 S  S1  1  0.66667  0.33333  0.58686  1
 S  S2  1  0.00000  0.00000  0.74645  1
 S  S3  1  0.33333  0.66667  0.92017  1
 S  S4  1  0.00000  0.00000  0.25355  1
 S  S5  1  0.66667  0.33333  0.07983  1
 S  S6  1  0.33333  0.66667  0.41314  1
