CIF file written using JARVIS-Tools package.
data_Li7Mn2Co3O12
_symmetry_space_group_name_H-M  'Pm'
_cell_length_a       2.83798
_cell_length_b       5.7412
_cell_length_c       12.4344
_cell_angle_alpha    77.5305
_cell_angle_beta     89.9986
_cell_angle_gamma    89.9928

_symmetry_Int_Tables_number  6
_chemical_formula_structural  Li7Mn2Co3O12
_chemical_formula_sum  Li7Mn2Co3O2
_cell_volume  197.82020918671188
_cell_formula_units_Z  1
loop_
  _symmetry_equiv_pos_site_id
 _symmetry_equiv_pos_as_xyz
 1  'x, y, z'
loop_
 _atom_site_type_symbol
 _atom_site_label
 _atom_site_symmetry_multiplicity
 _atom_site_fract_x
 _atom_site_fract_y
 _atom_site_fract_z
 _atom_site_fract_occupancy
 Co  Co1  1  0.00003  0.66863  0.66977  1
 Co  Co2  1  0.49995  0.16644  0.16780  1
 Co  Co3  1  0.50001  0.49935  0.50063  1
 Li  Li1  1  0.50005  0.82520  0.82952  1
 Li  Li2  1  0.00020  0.14505  0.68264  1
 Li  Li3  1  0.00003  0.51794  0.97919  1
 Li  Li4  1  -0.00007  0.83286  0.33488  1
 Li  Li5  1  0.49983  0.66973  0.16263  1
 Li  Li6  1  0.50009  0.34598  0.82742  1
 Li  Li7  1  0.50007  0.99151  0.50932  1
 Mn  Mn1  1  -0.00002  0.00125  0.99316  1
 Mn  Mn2  1  0.99995  0.33267  0.33486  1
 O  O1  1  -0.00001  0.94368  0.16273  1
 O  O2  1  0.00006  0.58726  0.82148  1
 O  O3  1  0.50002  0.77475  0.00254  1
 O  O4  1  0.50000  0.89277  0.66589  1
 O  O5  1  -0.00003  0.72103  0.50576  1
 O  O6  1  0.00001  0.08297  0.84772  1
 O  O7  1  0.99990  0.39301  0.17610  1
 O  O8  1  0.49993  0.22871  0.01061  1
 O  O9  1  0.00003  0.27077  0.49218  1
 O  O10  1  0.49999  0.10193  0.32984  1
 O  O11  1  0.49991  0.56397  0.33707  1
 O  O12  1  0.50006  0.44255  0.65625  1
