CIF file written using JARVIS-Tools package.
data_ScPSe
_symmetry_space_group_name_H-M  'Immm'
_cell_length_a       7.18645
_cell_length_b       7.18645
_cell_length_c       7.18645
_cell_angle_alpha    151.658
_cell_angle_beta     138.512
_cell_angle_gamma    51.0067

_symmetry_Int_Tables_number  71
_chemical_formula_structural  ScPSe
_chemical_formula_sum  Sc2P2Se2
_cell_volume  116.18615825293031
_cell_formula_units_Z  2
loop_
  _symmetry_equiv_pos_site_id
 _symmetry_equiv_pos_as_xyz
 1  'x, y, z'
loop_
 _atom_site_type_symbol
 _atom_site_label
 _atom_site_symmetry_multiplicity
 _atom_site_fract_x
 _atom_site_fract_y
 _atom_site_fract_z
 _atom_site_fract_occupancy
 P  P1  1  0.77936  0.50000  0.27935  1
 P  P2  1  0.22065  0.50000  0.72065  1
 Sc  Sc1  1  0.36952  0.86952  0.50000  1
 Sc  Sc2  1  0.63048  0.13048  0.50000  1
 Se  Se1  1  0.20687  0.20687  -0.00000  1
 Se  Se2  1  0.79313  0.79313  0.00000  1
