CIF file written using JARVIS-Tools package.
data_Li2PH
_symmetry_space_group_name_H-M  'R3m'
_cell_length_a       4.32306
_cell_length_b       4.32306
_cell_length_c       4.32306
_cell_angle_alpha    58.7689
_cell_angle_beta     58.7689
_cell_angle_gamma    58.769

_symmetry_Int_Tables_number  160
_chemical_formula_structural  Li2PH
_chemical_formula_sum  Li2PH
_cell_volume  55.52297195777501
_cell_formula_units_Z  1
loop_
  _symmetry_equiv_pos_site_id
 _symmetry_equiv_pos_as_xyz
 1  'x, y, z'
loop_
 _atom_site_type_symbol
 _atom_site_label
 _atom_site_symmetry_multiplicity
 _atom_site_fract_x
 _atom_site_fract_y
 _atom_site_fract_z
 _atom_site_fract_occupancy
 H  H1  1  0.11249  0.11249  0.11249  1
 Li  Li1  1  0.27889  0.27889  0.27889  1
 Li  Li2  1  0.72210  0.72210  0.72210  1
 P  P1  1  0.97952  0.97952  0.97952  1
