CIF file written using JARVIS-Tools package.
data_Li4MnCo3O8
_symmetry_space_group_name_H-M  'P2/m'
_cell_length_a       2.84866
_cell_length_b       4.94282
_cell_length_c       9.45588
_cell_angle_alpha    79.7513
_cell_angle_beta     90.0287
_cell_angle_gamma    90.0223

_symmetry_Int_Tables_number  10
_chemical_formula_structural  Li4MnCo3O8
_chemical_formula_sum  Li4MnCo3O8
_cell_volume  131.0181325703251
_cell_formula_units_Z  1
loop_
  _symmetry_equiv_pos_site_id
 _symmetry_equiv_pos_as_xyz
 1  'x, y, z'
loop_
 _atom_site_type_symbol
 _atom_site_label
 _atom_site_symmetry_multiplicity
 _atom_site_fract_x
 _atom_site_fract_y
 _atom_site_fract_z
 _atom_site_fract_occupancy
 Co  Co1  1  -0.00002  0.75184  0.75113  1
 Co  Co2  1  0.50000  0.50000  -0.00000  1
 Co  Co3  1  0.00002  0.24816  0.24887  1
 Li  Li1  1  0.00000  0.00000  0.00000  1
 Li  Li2  1  0.50001  0.74596  0.24788  1
 Li  Li3  1  0.00000  0.50000  0.50000  1
 Li  Li4  1  0.49999  0.25404  0.75212  1
 Mn  Mn1  1  0.50000  -0.00000  0.50000  1
 O  O1  1  0.50015  0.85075  0.87101  1
 O  O2  1  0.00021  0.59654  0.11993  1
 O  O3  1  0.50018  0.34987  0.37104  1
 O  O4  1  0.00018  0.10796  0.62094  1
 O  O5  1  0.49985  0.14925  0.12899  1
 O  O6  1  0.99982  0.89204  0.37906  1
 O  O7  1  0.49982  0.65013  0.62896  1
 O  O8  1  -0.00021  0.40346  0.88007  1
