CIF file written using JARVIS-Tools package.
data_K2MgMo2H4O10
_symmetry_space_group_name_H-M  'P-1'
_cell_length_a       5.8884
_cell_length_b       6.48579
_cell_length_c       7.68393
_cell_angle_alpha    110.591
_cell_angle_beta     96.5342
_cell_angle_gamma    109.296

_symmetry_Int_Tables_number  2
_chemical_formula_structural  K2MgMo2H4O10
_chemical_formula_sum  K2MgMo2H4O0
_cell_volume  250.33715342582784
_cell_formula_units_Z  1
loop_
  _symmetry_equiv_pos_site_id
 _symmetry_equiv_pos_as_xyz
 1  'x, y, z'
loop_
 _atom_site_type_symbol
 _atom_site_label
 _atom_site_symmetry_multiplicity
 _atom_site_fract_x
 _atom_site_fract_y
 _atom_site_fract_z
 _atom_site_fract_occupancy
 H  H1  1  0.92609  0.86369  0.29702  1
 H  H2  1  0.07391  0.13631  0.70298  1
 H  H3  1  0.12738  0.13150  0.39095  1
 H  H4  1  0.87262  0.86850  0.60905  1
 K  K1  1  0.34147  0.71161  0.23949  1
 K  K2  1  0.65853  0.28839  0.76051  1
 Mg  Mg1  1  0.00000  0.00000  0.00000  1
 Mo  Mo1  1  0.32514  0.66157  0.75916  1
 Mo  Mo2  1  0.67486  0.33843  0.24084  1
 O  O1  1  0.05248  0.98373  0.26731  1
 O  O2  1  0.64904  0.18783  0.39110  1
 O  O3  1  0.23798  0.34751  0.62223  1
 O  O4  1  0.35096  0.81217  0.60890  1
 O  O5  1  0.90396  0.29868  0.11187  1
 O  O6  1  0.38084  0.23045  0.07155  1
 O  O7  1  0.09604  0.70132  0.88813  1
 O  O8  1  0.76202  0.65249  0.37777  1
 O  O9  1  0.61916  0.76955  0.92845  1
 O  O10  1  0.94752  0.01627  0.73269  1
