CIF file written using JARVIS-Tools package.
data_TbMoC2
_symmetry_space_group_name_H-M  'Pnma'
_cell_length_a       3.40943
_cell_length_b       5.72786
_cell_length_c       10.813
_cell_angle_alpha    90
_cell_angle_beta     90
_cell_angle_gamma    90

_symmetry_Int_Tables_number  62
_chemical_formula_structural  TbMoC2
_chemical_formula_sum  Tb4Mo4C8
_cell_volume  211.16465917635844
_cell_formula_units_Z  4
loop_
  _symmetry_equiv_pos_site_id
 _symmetry_equiv_pos_as_xyz
 1  'x, y, z'
loop_
 _atom_site_type_symbol
 _atom_site_label
 _atom_site_symmetry_multiplicity
 _atom_site_fract_x
 _atom_site_fract_y
 _atom_site_fract_z
 _atom_site_fract_occupancy
 C  C1  1  0.25000  0.15803  0.24742  1
 C  C2  1  0.25000  0.65803  0.25258  1
 C  C3  1  0.75000  0.84197  0.75258  1
 C  C4  1  0.75000  0.34197  0.74742  1
 C  C5  1  0.25000  0.72086  0.98257  1
 C  C6  1  0.25000  0.22086  0.51743  1
 C  C7  1  0.75000  0.27914  0.01743  1
 C  C8  1  0.75000  0.77914  0.48257  1
 Mo  Mo1  1  0.25000  0.40205  0.11004  1
 Mo  Mo2  1  0.25000  0.90205  0.38996  1
 Mo  Mo3  1  0.75000  0.59795  0.88996  1
 Mo  Mo4  1  0.75000  0.09795  0.61004  1
 Tb  Tb1  1  0.25000  0.08769  0.86255  1
 Tb  Tb2  1  0.25000  0.58769  0.63745  1
 Tb  Tb3  1  0.75000  0.91231  0.13745  1
 Tb  Tb4  1  0.75000  0.41231  0.36255  1
