CIF file written using JARVIS-Tools package.
data_Ca3V2O8
_symmetry_space_group_name_H-M  'C2/m'
_cell_length_a       5.66755
_cell_length_b       5.66755
_cell_length_c       6.87228
_cell_angle_alpha    68.9015
_cell_angle_beta     68.9015
_cell_angle_gamma    58.4539

_symmetry_Int_Tables_number  12
_chemical_formula_structural  Ca3V2O8
_chemical_formula_sum  Ca3V2O8
_cell_volume  171.37359079852575
_cell_formula_units_Z  1
loop_
  _symmetry_equiv_pos_site_id
 _symmetry_equiv_pos_as_xyz
 1  'x, y, z'
loop_
 _atom_site_type_symbol
 _atom_site_label
 _atom_site_symmetry_multiplicity
 _atom_site_fract_x
 _atom_site_fract_y
 _atom_site_fract_z
 _atom_site_fract_occupancy
 Ca  Ca1  1  0.82418  0.82418  0.58402  1
 Ca  Ca2  1  0.17582  0.17582  0.41598  1
 Ca  Ca3  1  0.00000  0.00000  0.00000  1
 O  O1  1  0.76152  0.24007  0.29512  1
 O  O2  1  0.68213  0.68213  0.93617  1
 O  O3  1  0.25700  0.25700  0.69426  1
 O  O4  1  0.24007  0.76152  0.29512  1
 O  O5  1  0.23848  0.75993  0.70488  1
 O  O6  1  0.75993  0.23848  0.70488  1
 O  O7  1  0.31787  0.31787  0.06383  1
 O  O8  1  0.74300  0.74300  0.30574  1
 V  V1  1  0.60561  0.60561  0.20764  1
 V  V2  1  0.39439  0.39439  0.79236  1
