CIF file written using JARVIS-Tools package.
data_InAsH2O5
_symmetry_space_group_name_H-M  'P-1'
_cell_length_a       5.52276
_cell_length_b       5.75605
_cell_length_c       6.74997
_cell_angle_alpha    98.8881
_cell_angle_beta     94.626
_cell_angle_gamma    107.143

_symmetry_Int_Tables_number  2
_chemical_formula_structural  InAsH2O5
_chemical_formula_sum  In2As2H4O0
_cell_volume  200.76302308532266
_cell_formula_units_Z  2
loop_
  _symmetry_equiv_pos_site_id
 _symmetry_equiv_pos_as_xyz
 1  'x, y, z'
loop_
 _atom_site_type_symbol
 _atom_site_label
 _atom_site_symmetry_multiplicity
 _atom_site_fract_x
 _atom_site_fract_y
 _atom_site_fract_z
 _atom_site_fract_occupancy
 As  As1  1  0.73802  0.87965  0.74282  1
 As  As2  1  0.26198  0.12035  0.25718  1
 H  H1  1  0.89155  0.36230  0.27196  1
 H  H2  1  0.10845  0.63770  0.72804  1
 H  H3  1  0.07146  0.61567  0.21095  1
 H  H4  1  0.92854  0.38433  0.78905  1
 In  In1  1  0.63101  0.72599  0.22147  1
 In  In2  1  0.36899  0.27401  0.77853  1
 O  O1  1  0.91799  0.54263  0.27637  1
 O  O2  1  0.34848  0.34812  0.10828  1
 O  O3  1  0.69137  0.14783  0.85960  1
 O  O4  1  0.65152  0.65188  0.89172  1
 O  O5  1  0.94091  0.07146  0.27002  1
 O  O6  1  0.45841  0.24049  0.47922  1
 O  O7  1  0.05909  0.92854  0.72998  1
 O  O8  1  0.30863  0.85217  0.14040  1
 O  O9  1  0.54159  0.75951  0.52078  1
 O  O10  1  0.08201  0.45737  0.72363  1
