CIF file written using JARVIS-Tools package.
data_TbGaPd2
_symmetry_space_group_name_H-M  'Pnma'
_cell_length_a       5.63404
_cell_length_b       7.15701
_cell_length_c       7.32972
_cell_angle_alpha    90
_cell_angle_beta     90
_cell_angle_gamma    90

_symmetry_Int_Tables_number  62
_chemical_formula_structural  TbGaPd2
_chemical_formula_sum  Tb4Ga4Pd8
_cell_volume  295.5556335895631
_cell_formula_units_Z  4
loop_
  _symmetry_equiv_pos_site_id
 _symmetry_equiv_pos_as_xyz
 1  'x, y, z'
loop_
 _atom_site_type_symbol
 _atom_site_label
 _atom_site_symmetry_multiplicity
 _atom_site_fract_x
 _atom_site_fract_y
 _atom_site_fract_z
 _atom_site_fract_occupancy
 Ga  Ga1  1  0.64342  0.75000  0.38519  1
 Ga  Ga2  1  0.85658  0.75000  0.88519  1
 Ga  Ga3  1  0.35658  0.25000  0.61481  1
 Ga  Ga4  1  0.14342  0.25000  0.11481  1
 Pd  Pd1  1  0.91306  0.55094  0.18543  1
 Pd  Pd2  1  0.58694  0.94906  0.68543  1
 Pd  Pd3  1  0.08694  0.05094  0.81457  1
 Pd  Pd4  1  0.41306  0.44906  0.31457  1
 Pd  Pd5  1  0.08694  0.44906  0.81457  1
 Pd  Pd6  1  0.41306  0.05094  0.31457  1
 Pd  Pd7  1  0.91306  0.94906  0.18543  1
 Pd  Pd8  1  0.58694  0.55094  0.68543  1
 Tb  Tb1  1  0.35509  0.75000  0.02902  1
 Tb  Tb2  1  0.14491  0.75000  0.52902  1
 Tb  Tb3  1  0.64491  0.25000  0.97098  1
 Tb  Tb4  1  0.85509  0.25000  0.47098  1
