CIF file written using JARVIS-Tools package.
data_Ho2Te3
_symmetry_space_group_name_H-M  'Fddd'
_cell_length_a       14.3178
_cell_length_b       13.654
_cell_length_c       7.47974
_cell_angle_alpha    79.4553
_cell_angle_beta     69.6416
_cell_angle_gamma    30.9031

_symmetry_Int_Tables_number  70
_chemical_formula_structural  Ho2Te3
_chemical_formula_sum  Ho8Te2
_cell_volume  683.5273549980885
_cell_formula_units_Z  4
loop_
  _symmetry_equiv_pos_site_id
 _symmetry_equiv_pos_as_xyz
 1  'x, y, z'
loop_
 _atom_site_type_symbol
 _atom_site_label
 _atom_site_symmetry_multiplicity
 _atom_site_fract_x
 _atom_site_fract_y
 _atom_site_fract_z
 _atom_site_fract_occupancy
 Ho  Ho1  1  0.33286  0.33286  0.16714  1
 Ho  Ho2  1  0.16714  0.16714  0.33286  1
 Ho  Ho3  1  0.91714  0.91714  0.08286  1
 Ho  Ho4  1  0.08286  0.08286  0.91714  1
 Ho  Ho5  1  0.99973  0.99973  0.50027  1
 Ho  Ho6  1  0.50027  0.50027  0.99973  1
 Ho  Ho7  1  0.25027  0.25027  0.74973  1
 Ho  Ho8  1  0.74973  0.74973  0.25027  1
 Te  Te1  1  0.99653  0.50347  0.50347  1
 Te  Te2  1  0.91568  0.41767  0.08215  1
 Te  Te3  1  0.25347  0.74653  0.74653  1
 Te  Te4  1  0.74653  0.25347  0.25347  1
 Te  Te5  1  0.50347  0.99653  0.99653  1
 Te  Te6  1  0.58450  0.08215  0.41767  1
 Te  Te7  1  0.33432  0.83233  0.16785  1
 Te  Te8  1  0.16785  0.66550  0.33432  1
 Te  Te9  1  0.66550  0.16785  0.83233  1
 Te  Te10  1  0.41767  0.91568  0.58450  1
 Te  Te11  1  0.83233  0.33432  0.66550  1
 Te  Te12  1  0.08215  0.58450  0.91568  1
