CIF file written using JARVIS-Tools package.
data_LiHS
_symmetry_space_group_name_H-M  'Pm'
_cell_length_a       4.18176
_cell_length_b       4.52415
_cell_length_c       4.33088
_cell_angle_alpha    90
_cell_angle_beta     90
_cell_angle_gamma    129.789

_symmetry_Int_Tables_number  6
_chemical_formula_structural  LiHS
_chemical_formula_sum  LiHS
_cell_volume  62.95970267378114
_cell_formula_units_Z  1
loop_
  _symmetry_equiv_pos_site_id
 _symmetry_equiv_pos_as_xyz
 1  'x, y, z'
loop_
 _atom_site_type_symbol
 _atom_site_label
 _atom_site_symmetry_multiplicity
 _atom_site_fract_x
 _atom_site_fract_y
 _atom_site_fract_z
 _atom_site_fract_occupancy
 H  H1  1  0.19782  -0.01871  0.00000  1
 Li  Li1  1  0.01893  0.33451  0.00000  1
 S  S1  1  0.78325  0.68420  0.00000  1
