CIF file written using JARVIS-Tools package.
data_Dy3Os
_symmetry_space_group_name_H-M  'Pnma'
_cell_length_a       6.28836
_cell_length_b       7.34997
_cell_length_c       9.01967
_cell_angle_alpha    90
_cell_angle_beta     90
_cell_angle_gamma    90

_symmetry_Int_Tables_number  62
_chemical_formula_structural  Dy3Os
_chemical_formula_sum  Dy2Os4
_cell_volume  416.8825729699792
_cell_formula_units_Z  4
loop_
  _symmetry_equiv_pos_site_id
 _symmetry_equiv_pos_as_xyz
 1  'x, y, z'
loop_
 _atom_site_type_symbol
 _atom_site_label
 _atom_site_symmetry_multiplicity
 _atom_site_fract_x
 _atom_site_fract_y
 _atom_site_fract_z
 _atom_site_fract_occupancy
 Dy  Dy1  1  0.33374  0.67649  0.06216  1
 Dy  Dy2  1  0.16626  0.17649  0.43784  1
 Dy  Dy3  1  0.66626  0.32351  0.56216  1
 Dy  Dy4  1  0.83374  0.82351  0.93784  1
 Dy  Dy5  1  0.66626  0.32351  0.93784  1
 Dy  Dy6  1  0.83374  0.82351  0.56216  1
 Dy  Dy7  1  0.33374  0.67649  0.43784  1
 Dy  Dy8  1  0.16626  0.17649  0.06216  1
 Dy  Dy9  1  0.87165  0.53690  0.25000  1
 Dy  Dy10  1  0.62835  0.03690  0.25000  1
 Dy  Dy11  1  0.12835  0.46310  0.75000  1
 Dy  Dy12  1  0.37165  0.96310  0.75000  1
 Os  Os1  1  0.04194  0.88341  0.25000  1
 Os  Os2  1  0.45806  0.38341  0.25000  1
 Os  Os3  1  0.95806  0.11659  0.75000  1
 Os  Os4  1  0.54194  0.61659  0.75000  1
