CIF file written using JARVIS-Tools package.
data_Rb2AlOF5
_symmetry_space_group_name_H-M  'Cmcm'
_cell_length_a       6.28048
_cell_length_b       6.28049
_cell_length_c       7.54985
_cell_angle_alpha    90
_cell_angle_beta     90
_cell_angle_gamma    98.4059

_symmetry_Int_Tables_number  63
_chemical_formula_structural  Rb2AlOF5
_chemical_formula_sum  Rb4Al2O2F0
_cell_volume  294.6007424601668
_cell_formula_units_Z  2
loop_
  _symmetry_equiv_pos_site_id
 _symmetry_equiv_pos_as_xyz
 1  'x, y, z'
loop_
 _atom_site_type_symbol
 _atom_site_label
 _atom_site_symmetry_multiplicity
 _atom_site_fract_x
 _atom_site_fract_y
 _atom_site_fract_z
 _atom_site_fract_occupancy
 Al  Al1  1  0.00000  0.00000  0.50000  1
 Al  Al2  1  0.00000  0.00000  0.00000  1
 F  F1  1  0.77805  0.77805  0.99061  1
 F  F2  1  0.98869  0.98869  0.25000  1
 F  F3  1  0.18947  0.81053  0.00000  1
 F  F4  1  0.81053  0.18947  0.50000  1
 F  F5  1  0.18947  0.81053  0.50000  1
 F  F6  1  0.22195  0.22195  0.49061  1
 F  F7  1  0.77805  0.77805  0.50939  1
 F  F8  1  0.01131  0.01131  0.75000  1
 F  F9  1  0.81053  0.18947  0.00000  1
 F  F10  1  0.22195  0.22195  0.00939  1
 O  O1  1  0.57796  0.57796  0.75000  1
 O  O2  1  0.42204  0.42204  0.25000  1
 Rb  Rb1  1  0.95787  0.50189  0.25000  1
 Rb  Rb2  1  0.49811  0.04213  0.75000  1
 Rb  Rb3  1  0.04213  0.49811  0.75000  1
 Rb  Rb4  1  0.50189  0.95787  0.25000  1
