CIF file written using JARVIS-Tools package.
data_Al3Fe2Si
_symmetry_space_group_name_H-M  'Fd-3m'
_cell_length_a       7.61902
_cell_length_b       7.61902
_cell_length_c       7.61901
_cell_angle_alpha    60
_cell_angle_beta     60
_cell_angle_gamma    60

_symmetry_Int_Tables_number  227
_chemical_formula_structural  Al3Fe2Si
_chemical_formula_sum  Al2Fe8Si4
_cell_volume  312.7380190187017
_cell_formula_units_Z  4
loop_
  _symmetry_equiv_pos_site_id
 _symmetry_equiv_pos_as_xyz
 1  'x, y, z'
loop_
 _atom_site_type_symbol
 _atom_site_label
 _atom_site_symmetry_multiplicity
 _atom_site_fract_x
 _atom_site_fract_y
 _atom_site_fract_z
 _atom_site_fract_occupancy
 Al  Al1  1  0.79931  0.79931  0.20069  1
 Al  Al2  1  0.20069  0.20069  0.79931  1
 Al  Al3  1  0.79931  0.20069  0.79931  1
 Al  Al4  1  0.20069  0.79931  0.20069  1
 Al  Al5  1  0.20069  0.79931  0.79931  1
 Al  Al6  1  0.45069  0.04931  0.04931  1
 Al  Al7  1  0.79931  0.20069  0.20069  1
 Al  Al8  1  0.04931  0.04931  0.45069  1
 Al  Al9  1  0.45069  0.04931  0.45069  1
 Al  Al10  1  0.04931  0.45069  0.04931  1
 Al  Al11  1  0.04931  0.45069  0.45069  1
 Al  Al12  1  0.45069  0.45069  0.04931  1
 Fe  Fe1  1  0.40929  0.40929  0.77214  1
 Fe  Fe2  1  0.77214  0.40929  0.40929  1
 Fe  Fe3  1  0.40929  0.77214  0.40929  1
 Fe  Fe4  1  0.40929  0.40929  0.40929  1
 Fe  Fe5  1  0.47786  0.84071  0.84071  1
 Fe  Fe6  1  0.84071  0.84071  0.47786  1
 Fe  Fe7  1  0.84071  0.84071  0.84071  1
 Fe  Fe8  1  0.84071  0.47786  0.84071  1
 Si  Si1  1  0.62500  0.12500  0.62500  1
 Si  Si2  1  0.62500  0.62500  0.12500  1
 Si  Si3  1  0.12500  0.62500  0.62500  1
 Si  Si4  1  0.62500  0.62500  0.62500  1
