CIF file written using JARVIS-Tools package.
data_NiAsO4
_symmetry_space_group_name_H-M  'I-4'
_cell_length_a       5.1304
_cell_length_b       5.1304
_cell_length_c       5.1304
_cell_angle_alpha    123.016
_cell_angle_beta     123.016
_cell_angle_gamma    84.8516

_symmetry_Int_Tables_number  82
_chemical_formula_structural  NiAsO4
_chemical_formula_sum  NiAsO4
_cell_volume  90.73306511833255
_cell_formula_units_Z  1
loop_
  _symmetry_equiv_pos_site_id
 _symmetry_equiv_pos_as_xyz
 1  'x, y, z'
loop_
 _atom_site_type_symbol
 _atom_site_label
 _atom_site_symmetry_multiplicity
 _atom_site_fract_x
 _atom_site_fract_y
 _atom_site_fract_z
 _atom_site_fract_occupancy
 As  As1  1  0.00000  0.00000  0.00000  1
 Ni  Ni1  1  0.75000  0.25000  0.50000  1
 O  O1  1  0.89118  0.93977  0.58283  1
 O  O2  1  0.35693  0.30834  0.41716  1
 O  O3  1  0.06023  0.64307  -0.04859  1
 O  O4  1  0.69165  0.10882  0.04859  1
