CIF file written using JARVIS-Tools package.
data_TlAsF3
_symmetry_space_group_name_H-M  'R3m'
_cell_length_a       4.70671
_cell_length_b       4.70671
_cell_length_c       4.70671
_cell_angle_alpha    103.182
_cell_angle_beta     103.182
_cell_angle_gamma    103.182

_symmetry_Int_Tables_number  160
_chemical_formula_structural  TlAsF3
_chemical_formula_sum  TlAsF3
_cell_volume  94.43401998949908
_cell_formula_units_Z  1
loop_
  _symmetry_equiv_pos_site_id
 _symmetry_equiv_pos_as_xyz
 1  'x, y, z'
loop_
 _atom_site_type_symbol
 _atom_site_label
 _atom_site_symmetry_multiplicity
 _atom_site_fract_x
 _atom_site_fract_y
 _atom_site_fract_z
 _atom_site_fract_occupancy
 As  As1  1  0.01433  0.01433  0.01433  1
 F  F1  1  0.66363  0.12151  0.12151  1
 F  F2  1  0.12151  0.66363  0.12151  1
 F  F3  1  0.12151  0.12151  0.66363  1
 Tl  Tl1  1  0.51481  0.51481  0.51481  1
