CIF file written using JARVIS-Tools package.
data_LiMnCoO4
_symmetry_space_group_name_H-M  'Imma'
_cell_length_a       5.64752
_cell_length_b       5.64669
_cell_length_c       5.64633
_cell_angle_alpha    119.641
_cell_angle_beta     118.508
_cell_angle_gamma    91.6279

_symmetry_Int_Tables_number  74
_chemical_formula_structural  LiMnCoO4
_chemical_formula_sum  Li2Mn2Co2O8
_cell_volume  129.01614659260494
_cell_formula_units_Z  2
loop_
  _symmetry_equiv_pos_site_id
 _symmetry_equiv_pos_as_xyz
 1  'x, y, z'
loop_
 _atom_site_type_symbol
 _atom_site_label
 _atom_site_symmetry_multiplicity
 _atom_site_fract_x
 _atom_site_fract_y
 _atom_site_fract_z
 _atom_site_fract_occupancy
 Co  Co1  1  0.00000  0.00000  0.00000  1
 Co  Co2  1  0.50000  0.00000  0.50000  1
 Li  Li1  1  0.00000  0.50000  -0.00000  1
 Li  Li2  1  0.00000  0.00000  0.50000  1
 Mn  Mn1  1  0.50000  0.50000  0.50000  1
 Mn  Mn2  1  0.50000  0.00000  -0.00000  1
 O  O1  1  0.74126  0.21196  0.97080  1
 O  O2  1  0.27927  0.75745  0.52169  1
 O  O3  1  0.25885  0.22953  0.47080  1
 O  O4  1  0.73575  0.75757  -0.02170  1
 O  O5  1  0.26425  0.24243  0.02170  1
 O  O6  1  0.74115  0.77047  0.52920  1
 O  O7  1  0.72073  0.24255  0.47831  1
 O  O8  1  0.25874  0.78804  0.02920  1
