CIF file written using JARVIS-Tools package.
data_Hf2Rh
_symmetry_space_group_name_H-M  'Fd-3m'
_cell_length_a       8.70097
_cell_length_b       8.70097
_cell_length_c       8.70097
_cell_angle_alpha    60
_cell_angle_beta     60
_cell_angle_gamma    60

_symmetry_Int_Tables_number  227
_chemical_formula_structural  Hf2Rh
_chemical_formula_sum  Hf6Rh8
_cell_volume  465.78769483861436
_cell_formula_units_Z  8
loop_
  _symmetry_equiv_pos_site_id
 _symmetry_equiv_pos_as_xyz
 1  'x, y, z'
loop_
 _atom_site_type_symbol
 _atom_site_label
 _atom_site_symmetry_multiplicity
 _atom_site_fract_x
 _atom_site_fract_y
 _atom_site_fract_z
 _atom_site_fract_occupancy
 Hf  Hf1  1  0.12500  0.62500  0.62500  1
 Hf  Hf2  1  0.18568  0.81432  0.18568  1
 Hf  Hf3  1  0.62500  0.12500  0.62500  1
 Hf  Hf4  1  0.62500  0.62500  0.12500  1
 Hf  Hf5  1  0.62500  0.62500  0.62500  1
 Hf  Hf6  1  0.18568  0.18568  0.81432  1
 Hf  Hf7  1  0.81432  0.18568  0.81432  1
 Hf  Hf8  1  0.06432  0.06432  0.43568  1
 Hf  Hf9  1  0.81432  0.81432  0.18568  1
 Hf  Hf10  1  0.81432  0.18568  0.18568  1
 Hf  Hf11  1  0.43568  0.43568  0.06432  1
 Hf  Hf12  1  0.43568  0.06432  0.43568  1
 Hf  Hf13  1  0.06432  0.43568  0.06432  1
 Hf  Hf14  1  0.06432  0.43568  0.43568  1
 Hf  Hf15  1  0.43568  0.06432  0.06432  1
 Hf  Hf16  1  0.18568  0.81432  0.81432  1
 Rh  Rh1  1  0.84684  0.45947  0.84684  1
 Rh  Rh2  1  0.84684  0.84684  0.45947  1
 Rh  Rh3  1  0.79053  0.40316  0.40316  1
 Rh  Rh4  1  0.40316  0.79053  0.40316  1
 Rh  Rh5  1  0.40316  0.40316  0.79053  1
 Rh  Rh6  1  0.40316  0.40316  0.40316  1
 Rh  Rh7  1  0.45947  0.84684  0.84684  1
 Rh  Rh8  1  0.84684  0.84684  0.84684  1
