CIF file written using JARVIS-Tools package.
data_LiVC2O6
_symmetry_space_group_name_H-M  'P312'
_cell_length_a       7.92986
_cell_length_b       7.92986
_cell_length_c       5.21891
_cell_angle_alpha    90
_cell_angle_beta     90
_cell_angle_gamma    120

_symmetry_Int_Tables_number  149
_chemical_formula_structural  LiVC2O6
_chemical_formula_sum  Li3V3C6O8
_cell_volume  284.2116857394795
_cell_formula_units_Z  3
loop_
  _symmetry_equiv_pos_site_id
 _symmetry_equiv_pos_as_xyz
 1  'x, y, z'
loop_
 _atom_site_type_symbol
 _atom_site_label
 _atom_site_symmetry_multiplicity
 _atom_site_fract_x
 _atom_site_fract_y
 _atom_site_fract_z
 _atom_site_fract_occupancy
 C  C1  1  0.00000  0.00000  0.26032  1
 C  C2  1  0.00000  0.00000  0.73968  1
 C  C3  1  0.33333  0.66667  0.73972  1
 C  C4  1  0.33333  0.66667  0.26034  1
 C  C5  1  0.66667  0.33333  0.26028  1
 C  C6  1  0.66667  0.33333  0.73966  1
 Li  Li1  1  -0.00000  0.33330  0.00000  1
 Li  Li2  1  0.33330  -0.00000  0.00000  1
 Li  Li3  1  0.66670  0.66670  0.00000  1
 O  O1  1  0.23327  0.75559  0.73817  1
 O  O2  1  0.14435  0.57776  0.26188  1
 O  O3  1  0.08891  0.89992  0.26187  1
 O  O4  1  0.10008  0.18898  0.26187  1
 O  O5  1  0.43341  0.85565  0.26188  1
 O  O6  1  0.24441  0.47768  0.73817  1
 O  O7  1  0.52232  0.76673  0.73817  1
 O  O8  1  0.85565  0.43341  0.73812  1
 O  O9  1  0.42224  0.56659  0.26188  1
 O  O10  1  0.76673  0.52232  0.26183  1
 O  O11  1  0.81102  0.91109  0.26187  1
 O  O12  1  0.91109  0.81102  0.73813  1
 O  O13  1  0.57776  0.14435  0.73812  1
 O  O14  1  0.18898  0.10008  0.73813  1
 O  O15  1  0.75559  0.23327  0.26183  1
 O  O16  1  0.47768  0.24441  0.26183  1
 O  O17  1  0.56659  0.42224  0.73812  1
 O  O18  1  0.89992  0.08891  0.73813  1
 V  V1  1  0.66665  0.00000  0.50000  1
 V  V2  1  0.33335  0.33335  0.50000  1
 V  V3  1  0.00000  0.66665  0.50000  1
