CIF file written using JARVIS-Tools package.
data_LaPO4
_symmetry_space_group_name_H-M  'Pnma'
_cell_length_a       5.23572
_cell_length_b       7.42723
_cell_length_c       9.20844
_cell_angle_alpha    90
_cell_angle_beta     90
_cell_angle_gamma    90

_symmetry_Int_Tables_number  62
_chemical_formula_structural  LaPO4
_chemical_formula_sum  La4P4O6
_cell_volume  358.0878763637834
_cell_formula_units_Z  4
loop_
  _symmetry_equiv_pos_site_id
 _symmetry_equiv_pos_as_xyz
 1  'x, y, z'
loop_
 _atom_site_type_symbol
 _atom_site_label
 _atom_site_symmetry_multiplicity
 _atom_site_fract_x
 _atom_site_fract_y
 _atom_site_fract_z
 _atom_site_fract_occupancy
 La  La1  1  0.25000  0.98066  0.30482  1
 La  La2  1  0.25000  0.48066  0.19518  1
 La  La3  1  0.75000  0.01934  0.69518  1
 La  La4  1  0.75000  0.51934  0.80482  1
 O  O1  1  0.25000  0.03762  0.58493  1
 O  O2  1  0.25000  0.53762  0.91507  1
 O  O3  1  0.75000  0.96238  0.41507  1
 O  O4  1  0.75000  0.70125  0.58366  1
 O  O5  1  0.50617  0.18659  0.15628  1
 O  O6  1  0.99383  0.68659  0.34372  1
 O  O7  1  0.75000  0.46238  0.08493  1
 O  O8  1  0.49383  0.31341  0.65628  1
 O  O9  1  0.49383  0.81341  0.84372  1
 O  O10  1  0.99383  0.18659  0.15628  1
 O  O11  1  0.00617  0.81341  0.84372  1
 O  O12  1  0.50617  0.68659  0.34372  1
 O  O13  1  0.25000  0.29875  0.41634  1
 O  O14  1  0.25000  0.79875  0.08366  1
 O  O15  1  0.00617  0.31341  0.65628  1
 O  O16  1  0.75000  0.20125  0.91634  1
 P  P1  1  0.25000  0.25002  0.57941  1
 P  P2  1  0.25000  0.75002  0.92059  1
 P  P3  1  0.75000  0.74998  0.42059  1
 P  P4  1  0.75000  0.24998  0.07941  1
