CIF file written using JARVIS-Tools package.
data_HgCl3
_symmetry_space_group_name_H-M  'P1'
_cell_length_a       5.05415
_cell_length_b       6.49334
_cell_length_c       4.0111
_cell_angle_alpha    82.4216
_cell_angle_beta     70.5319
_cell_angle_gamma    76.7196

_symmetry_Int_Tables_number  1
_chemical_formula_structural  HgCl3
_chemical_formula_sum  HgCl3
_cell_volume  120.57283141364361
_cell_formula_units_Z  1
loop_
  _symmetry_equiv_pos_site_id
 _symmetry_equiv_pos_as_xyz
 1  'x, y, z'
loop_
 _atom_site_type_symbol
 _atom_site_label
 _atom_site_symmetry_multiplicity
 _atom_site_fract_x
 _atom_site_fract_y
 _atom_site_fract_z
 _atom_site_fract_occupancy
 Cl  Cl1  1  0.46513  0.68095  0.13861  1
 Cl  Cl2  1  0.95196  0.69445  0.63569  1
 Cl  Cl3  1  0.07852  0.23778  0.23567  1
 Hg  Hg1  1  0.06249  0.97656  0.87968  1
