CIF file written using JARVIS-Tools package.
data_Li4Mn3CrO8
_symmetry_space_group_name_H-M  'C2/m'
_cell_length_a       6.00094
_cell_length_b       6.00095
_cell_length_c       5.76794
_cell_angle_alpha    61.3735
_cell_angle_beta     61.3734
_cell_angle_gamma    56.2222

_symmetry_Int_Tables_number  12
_chemical_formula_structural  Li4Mn3CrO8
_chemical_formula_sum  Li4Mn3CrO8
_cell_volume  144.96035722250707
_cell_formula_units_Z  1
loop_
  _symmetry_equiv_pos_site_id
 _symmetry_equiv_pos_as_xyz
 1  'x, y, z'
loop_
 _atom_site_type_symbol
 _atom_site_label
 _atom_site_symmetry_multiplicity
 _atom_site_fract_x
 _atom_site_fract_y
 _atom_site_fract_z
 _atom_site_fract_occupancy
 Cr  Cr1  1  -0.00000  0.00000  0.50000  1
 Li  Li1  1  0.50000  0.50000  0.00000  1
 Li  Li2  1  0.50000  0.00000  0.50000  1
 Li  Li3  1  0.00000  0.00000  0.00000  1
 Li  Li4  1  -0.00000  0.50000  0.50000  1
 Mn  Mn1  1  -0.00000  0.50000  -0.00000  1
 Mn  Mn2  1  0.50000  0.50000  0.50000  1
 Mn  Mn3  1  0.50000  -0.00000  -0.00000  1
 O  O1  1  0.75887  0.75887  0.21734  1
 O  O2  1  0.75109  0.26334  0.72679  1
 O  O3  1  0.23096  0.23096  0.25204  1
 O  O4  1  0.24113  0.24113  0.78266  1
 O  O5  1  0.26334  0.75109  0.72679  1
 O  O6  1  0.24891  0.73666  0.27321  1
 O  O7  1  0.76904  0.76904  0.74796  1
 O  O8  1  0.73666  0.24891  0.27321  1
