CIF file written using JARVIS-Tools package.
data_Sm3MnGaS7
_symmetry_space_group_name_H-M  'P6_3'
_cell_length_a       9.81526
_cell_length_b       9.81526
_cell_length_c       6.19825
_cell_angle_alpha    90
_cell_angle_beta     90
_cell_angle_gamma    120

_symmetry_Int_Tables_number  173
_chemical_formula_structural  Sm3MnGaS7
_chemical_formula_sum  Sm6Mn2Ga2S4
_cell_volume  517.1338018562269
_cell_formula_units_Z  2
loop_
  _symmetry_equiv_pos_site_id
 _symmetry_equiv_pos_as_xyz
 1  'x, y, z'
loop_
 _atom_site_type_symbol
 _atom_site_label
 _atom_site_symmetry_multiplicity
 _atom_site_fract_x
 _atom_site_fract_y
 _atom_site_fract_z
 _atom_site_fract_occupancy
 Ga  Ga1  1  0.66667  0.33333  0.65965  1
 Ga  Ga2  1  0.33333  0.66667  0.15965  1
 Mn  Mn1  1  0.00000  0.00000  0.03600  1
 Mn  Mn2  1  0.00000  0.00000  0.53600  1
 S  S1  1  0.47884  0.91085  0.00625  1
 S  S2  1  0.86068  0.10310  0.81309  1
 S  S3  1  0.66667  0.33333  0.02465  1
 S  S4  1  0.89690  0.75758  0.81309  1
 S  S5  1  0.13932  0.89690  0.31309  1
 S  S6  1  0.75758  0.86068  0.31309  1
 S  S7  1  0.24242  0.13932  0.81309  1
 S  S8  1  0.91085  0.43200  0.50625  1
 S  S9  1  0.52116  0.08915  0.50625  1
 S  S10  1  0.33333  0.66667  0.52465  1
 S  S11  1  0.08915  0.56800  0.00625  1
 S  S12  1  0.10310  0.24242  0.31309  1
 S  S13  1  0.43200  0.52116  0.00625  1
 S  S14  1  0.56800  0.47884  0.50625  1
 Sm  Sm1  1  0.15501  0.37800  0.73622  1
 Sm  Sm2  1  0.62200  0.77702  0.73622  1
 Sm  Sm3  1  0.22298  0.84499  0.73622  1
 Sm  Sm4  1  0.84499  0.62200  0.23622  1
 Sm  Sm5  1  0.37800  0.22298  0.23622  1
 Sm  Sm6  1  0.77702  0.15501  0.23622  1
