CIF file written using JARVIS-Tools package.
data_Ba2AuO3
_symmetry_space_group_name_H-M  'Immm'
_cell_length_a       7.31225
_cell_length_b       7.31225
_cell_length_c       7.31225
_cell_angle_alpha    150.109
_cell_angle_beta     144.55
_cell_angle_gamma    47.0317

_symmetry_Int_Tables_number  71
_chemical_formula_structural  Ba2AuO3
_chemical_formula_sum  Ba2AuO3
_cell_volume  112.59752682790304
_cell_formula_units_Z  1
loop_
  _symmetry_equiv_pos_site_id
 _symmetry_equiv_pos_as_xyz
 1  'x, y, z'
loop_
 _atom_site_type_symbol
 _atom_site_label
 _atom_site_symmetry_multiplicity
 _atom_site_fract_x
 _atom_site_fract_y
 _atom_site_fract_z
 _atom_site_fract_occupancy
 Au  Au1  1  0.50000  0.00000  0.50000  1
 Ba  Ba1  1  0.14587  0.64587  0.50000  1
 Ba  Ba2  1  0.85413  0.35414  0.50000  1
 O  O1  1  0.00000  0.00000  0.00000  1
 O  O2  1  0.34289  0.84289  0.50000  1
 O  O3  1  0.65711  0.15711  0.50000  1
