CIF file written using JARVIS-Tools package.
data_Li2FeBAsO7
_symmetry_space_group_name_H-M  'P2_1/m'
_cell_length_a       6.23269
_cell_length_b       5.07612
_cell_length_c       8.62421
_cell_angle_alpha    86.185
_cell_angle_beta     90
_cell_angle_gamma    90

_symmetry_Int_Tables_number  11
_chemical_formula_structural  Li2FeBAsO7
_chemical_formula_sum  Li4Fe2B2As2O4
_cell_volume  272.24702284209144
_cell_formula_units_Z  2
loop_
  _symmetry_equiv_pos_site_id
 _symmetry_equiv_pos_as_xyz
 1  'x, y, z'
loop_
 _atom_site_type_symbol
 _atom_site_label
 _atom_site_symmetry_multiplicity
 _atom_site_fract_x
 _atom_site_fract_y
 _atom_site_fract_z
 _atom_site_fract_occupancy
 As  As1  1  0.75000  0.28247  0.57078  1
 As  As2  1  0.25000  0.71753  0.42922  1
 B  B1  1  0.25000  0.27046  0.95137  1
 B  B2  1  0.75000  0.72954  0.04863  1
 Fe  Fe1  1  0.25000  0.20804  0.68123  1
 Fe  Fe2  1  0.75000  0.79196  0.31877  1
 Li  Li1  1  0.02228  0.76886  0.80426  1
 Li  Li2  1  0.47772  0.76886  0.80426  1
 Li  Li3  1  0.52228  0.23114  0.19574  1
 Li  Li4  1  0.97772  0.23114  0.19574  1
 O  O1  1  0.75000  0.69307  0.89881  1
 O  O2  1  0.75000  0.97334  0.11931  1
 O  O3  1  0.25000  0.46876  0.82634  1
 O  O4  1  0.95493  0.18043  0.69519  1
 O  O5  1  0.54507  0.18043  0.69519  1
 O  O6  1  0.25000  0.02666  0.88069  1
 O  O7  1  0.04507  0.81957  0.30481  1
 O  O8  1  0.25000  0.37907  0.47447  1
 O  O9  1  0.75000  0.14141  0.39527  1
 O  O10  1  0.45493  0.81957  0.30481  1
 O  O11  1  0.25000  0.85859  0.60473  1
 O  O12  1  0.75000  0.53124  0.17366  1
 O  O13  1  0.75000  0.62093  0.52553  1
 O  O14  1  0.25000  0.30693  0.10119  1
