CIF file written using JARVIS-Tools package.
data_ZrIN
_symmetry_space_group_name_H-M  'R-3m'
_cell_length_a       10.7876
_cell_length_b       10.7876
_cell_length_c       10.7876
_cell_angle_alpha    19.956
_cell_angle_beta     19.956
_cell_angle_gamma    19.956

_symmetry_Int_Tables_number  166
_chemical_formula_structural  ZrIN
_chemical_formula_sum  Zr2I2N2
_cell_volume  127.92044961478574
_cell_formula_units_Z  2
loop_
  _symmetry_equiv_pos_site_id
 _symmetry_equiv_pos_as_xyz
 1  'x, y, z'
loop_
 _atom_site_type_symbol
 _atom_site_label
 _atom_site_symmetry_multiplicity
 _atom_site_fract_x
 _atom_site_fract_y
 _atom_site_fract_z
 _atom_site_fract_occupancy
 I  I1  1  0.38973  0.38973  0.38972  1
 I  I2  1  0.61028  0.61028  0.61027  1
 N  N1  1  0.13899  0.13899  0.13899  1
 N  N2  1  0.86101  0.86101  0.86101  1
 Zr  Zr1  1  0.79301  0.79301  0.79300  1
 Zr  Zr2  1  0.20699  0.20699  0.20699  1
