CIF file written using JARVIS-Tools package.
data_Li2CeO3
_symmetry_space_group_name_H-M  'C2/c'
_cell_length_a       5.67555
_cell_length_b       5.67555
_cell_length_c       5.61084
_cell_angle_alpha    83.6507
_cell_angle_beta     83.6507
_cell_angle_gamma    125.207

_symmetry_Int_Tables_number  15
_chemical_formula_structural  Li2CeO3
_chemical_formula_sum  Li4Ce2O6
_cell_volume  143.34619298855284
_cell_formula_units_Z  2
loop_
  _symmetry_equiv_pos_site_id
 _symmetry_equiv_pos_as_xyz
 1  'x, y, z'
loop_
 _atom_site_type_symbol
 _atom_site_label
 _atom_site_symmetry_multiplicity
 _atom_site_fract_x
 _atom_site_fract_y
 _atom_site_fract_z
 _atom_site_fract_occupancy
 Ce  Ce1  1  0.10144  0.89856  0.75000  1
 Ce  Ce2  1  0.89856  0.10144  0.25000  1
 Li  Li1  1  0.78693  0.21307  0.75000  1
 Li  Li2  1  0.42278  0.57722  0.75000  1
 Li  Li3  1  0.21307  0.78693  0.25000  1
 Li  Li4  1  0.57722  0.42278  0.25000  1
 O  O1  1  0.84213  0.69555  0.46903  1
 O  O2  1  0.69555  0.84213  -0.03097  1
 O  O3  1  0.00000  0.50000  -0.00000  1
 O  O4  1  0.30445  0.15787  0.03097  1
 O  O5  1  0.50000  0.00000  0.50000  1
 O  O6  1  0.15787  0.30445  0.53097  1
