CIF file written using JARVIS-Tools package.
data_I3N
_symmetry_space_group_name_H-M  'P1'
_cell_length_a       4.24084
_cell_length_b       6.44615
_cell_length_c       5.59003
_cell_angle_alpha    112.103
_cell_angle_beta     80.7546
_cell_angle_gamma    76.4016

_symmetry_Int_Tables_number  1
_chemical_formula_structural  I3N
_chemical_formula_sum  I3N
_cell_volume  132.2450322270671
_cell_formula_units_Z  1
loop_
  _symmetry_equiv_pos_site_id
 _symmetry_equiv_pos_as_xyz
 1  'x, y, z'
loop_
 _atom_site_type_symbol
 _atom_site_label
 _atom_site_symmetry_multiplicity
 _atom_site_fract_x
 _atom_site_fract_y
 _atom_site_fract_z
 _atom_site_fract_occupancy
 I  I1  1  0.93773  0.99646  0.97494  1
 I  I2  1  0.70902  0.62274  0.19686  1
 I  I3  1  0.29567  0.38825  0.59471  1
 N  N1  1  0.53235  0.33077  0.18896  1
