CIF file written using JARVIS-Tools package.
data_DyBr3O6
_symmetry_space_group_name_H-M  'P2/c'
_cell_length_a       6.23879
_cell_length_b       5.13386
_cell_length_c       11.4842
_cell_angle_alpha    81.8122
_cell_angle_beta     90
_cell_angle_gamma    90

_symmetry_Int_Tables_number  13
_chemical_formula_structural  DyBr3O6
_chemical_formula_sum  Dy2Br6O2
_cell_volume  364.07983144949196
_cell_formula_units_Z  2
loop_
  _symmetry_equiv_pos_site_id
 _symmetry_equiv_pos_as_xyz
 1  'x, y, z'
loop_
 _atom_site_type_symbol
 _atom_site_label
 _atom_site_symmetry_multiplicity
 _atom_site_fract_x
 _atom_site_fract_y
 _atom_site_fract_z
 _atom_site_fract_occupancy
 Br  Br1  1  0.04453  -0.00000  0.75000  1
 Br  Br2  1  0.95547  0.00000  0.25000  1
 Br  Br3  1  0.20037  0.70660  0.52747  1
 Br  Br4  1  0.79963  0.29340  0.47253  1
 Br  Br5  1  0.20037  0.29340  0.97253  1
 Br  Br6  1  0.79963  0.70660  0.02747  1
 Dy  Dy1  1  0.61357  0.50000  0.75000  1
 Dy  Dy2  1  0.38643  0.50000  0.25000  1
 O  O1  1  0.87354  0.79001  0.68081  1
 O  O2  1  0.35389  0.24468  0.84717  1
 O  O3  1  0.87354  0.20999  0.81919  1
 O  O4  1  0.12646  0.79001  0.18081  1
 O  O5  1  0.12646  0.20999  0.31919  1
 O  O6  1  0.35389  0.75532  0.65283  1
 O  O7  1  0.61947  0.69308  0.91236  1
 O  O8  1  0.38053  0.30692  0.08764  1
 O  O9  1  0.61947  0.30692  0.58764  1
 O  O10  1  0.64611  0.24468  0.34717  1
 O  O11  1  0.38053  0.69308  0.41236  1
 O  O12  1  0.64611  0.75532  0.15283  1
