CIF file written using JARVIS-Tools package.
data_NaIO3
_symmetry_space_group_name_H-M  'Cm'
_cell_length_a       4.56552
_cell_length_b       4.78565
_cell_length_c       4.56552
_cell_angle_alpha    88.742
_cell_angle_beta     80.3141
_cell_angle_gamma    88.7421

_symmetry_Int_Tables_number  8
_chemical_formula_structural  NaIO3
_chemical_formula_sum  NaIO3
_cell_volume  98.28926825896826
_cell_formula_units_Z  1
loop_
  _symmetry_equiv_pos_site_id
 _symmetry_equiv_pos_as_xyz
 1  'x, y, z'
loop_
 _atom_site_type_symbol
 _atom_site_label
 _atom_site_symmetry_multiplicity
 _atom_site_fract_x
 _atom_site_fract_y
 _atom_site_fract_z
 _atom_site_fract_occupancy
 I  I1  1  0.70530  0.14253  0.70530  1
 Na  Na1  1  0.00390  -0.38060  0.00390  1
 O  O1  1  0.48885  0.64789  0.10345  1
 O  O2  1  0.40341  0.64719  0.40341  1
 O  O3  1  0.10345  0.64789  0.48885  1
