CIF file written using JARVIS-Tools package.
data_Si5H8Cl4
_symmetry_space_group_name_H-M  'I-4'
_cell_length_a       7.30782
_cell_length_b       7.30782
_cell_length_c       7.30782
_cell_angle_alpha    103.053
_cell_angle_beta     103.053
_cell_angle_gamma    123.25

_symmetry_Int_Tables_number  82
_chemical_formula_structural  Si5H8Cl4
_chemical_formula_sum  Si5H8Cl4
_cell_volume  287.16375676853727
_cell_formula_units_Z  1
loop_
  _symmetry_equiv_pos_site_id
 _symmetry_equiv_pos_as_xyz
 1  'x, y, z'
loop_
 _atom_site_type_symbol
 _atom_site_label
 _atom_site_symmetry_multiplicity
 _atom_site_fract_x
 _atom_site_fract_y
 _atom_site_fract_z
 _atom_site_fract_occupancy
 Cl  Cl1  1  0.78395  0.17623  0.99076  1
 Cl  Cl2  1  0.20682  0.21605  0.39229  1
 Cl  Cl3  1  0.82377  0.81453  0.60771  1
 Cl  Cl4  1  0.18547  0.79318  0.00924  1
 H  H1  1  0.77802  0.64890  0.18658  1
 H  H2  1  0.46232  0.59144  0.81342  1
 H  H3  1  0.35110  0.53768  0.12913  1
 H  H4  1  0.40856  0.22198  0.87087  1
 H  H5  1  0.67269  0.35804  0.33753  1
 H  H6  1  0.64196  0.97950  0.31465  1
 H  H7  1  0.66484  0.32731  0.68535  1
 H  H8  1  0.02050  0.33516  0.66247  1
 Si  Si1  1  0.52415  0.14993  0.76352  1
 Si  Si2  1  0.38640  0.76062  0.23648  1
 Si  Si3  1  0.23938  0.47585  0.62578  1
 Si  Si4  1  0.85007  0.61360  0.37422  1
 Si  Si5  1  0.25000  0.75000  0.50000  1
