CIF file written using JARVIS-Tools package.
data_TmGePd2
_symmetry_space_group_name_H-M  'Pnma'
_cell_length_a       5.56745
_cell_length_b       7.12171
_cell_length_c       7.28458
_cell_angle_alpha    90
_cell_angle_beta     90
_cell_angle_gamma    90

_symmetry_Int_Tables_number  62
_chemical_formula_structural  TmGePd2
_chemical_formula_sum  Tm4Ge4Pd8
_cell_volume  288.8320125657817
_cell_formula_units_Z  4
loop_
  _symmetry_equiv_pos_site_id
 _symmetry_equiv_pos_as_xyz
 1  'x, y, z'
loop_
 _atom_site_type_symbol
 _atom_site_label
 _atom_site_symmetry_multiplicity
 _atom_site_fract_x
 _atom_site_fract_y
 _atom_site_fract_z
 _atom_site_fract_occupancy
 Ge  Ge1  1  0.64438  0.75000  0.38328  1
 Ge  Ge2  1  0.85562  0.75000  0.88328  1
 Ge  Ge3  1  0.35562  0.25000  0.61672  1
 Ge  Ge4  1  0.14438  0.25000  0.11672  1
 Pd  Pd1  1  0.91584  0.54998  0.18708  1
 Pd  Pd2  1  0.58416  0.95002  0.68708  1
 Pd  Pd3  1  0.08416  0.04998  0.81292  1
 Pd  Pd4  1  0.41584  0.45002  0.31292  1
 Pd  Pd5  1  0.08416  0.45002  0.81292  1
 Pd  Pd6  1  0.41584  0.04998  0.31292  1
 Pd  Pd7  1  0.91584  0.95002  0.18708  1
 Pd  Pd8  1  0.58416  0.54998  0.68708  1
 Tm  Tm1  1  0.35459  0.75000  0.02767  1
 Tm  Tm2  1  0.14541  0.75000  0.52767  1
 Tm  Tm3  1  0.64541  0.25000  0.97233  1
 Tm  Tm4  1  0.85459  0.25000  0.47233  1
