CIF file written using JARVIS-Tools package.
data_NF2
_symmetry_space_group_name_H-M  'Pmm2'
_cell_length_a       2.93545
_cell_length_b       2.31013
_cell_length_c       4.03414
_cell_angle_alpha    90
_cell_angle_beta     90
_cell_angle_gamma    90

_symmetry_Int_Tables_number  25
_chemical_formula_structural  NF2
_chemical_formula_sum  NF2
_cell_volume  27.35661729182336
_cell_formula_units_Z  1
loop_
  _symmetry_equiv_pos_site_id
 _symmetry_equiv_pos_as_xyz
 1  'x, y, z'
loop_
 _atom_site_type_symbol
 _atom_site_label
 _atom_site_symmetry_multiplicity
 _atom_site_fract_x
 _atom_site_fract_y
 _atom_site_fract_z
 _atom_site_fract_occupancy
 F  F1  1  -0.10277  0.00000  0.25851  1
 F  F2  1  -0.10277  0.00000  -0.25851  1
 N  N1  1  0.60554  0.00000  0.00000  1
