CIF file written using JARVIS-Tools package.
data_MgAl2P2O10
_symmetry_space_group_name_H-M  'P2_1/c'
_cell_length_a       7.43164
_cell_length_b       7.08448
_cell_length_c       7.14559
_cell_angle_alpha    61.1645
_cell_angle_beta     90
_cell_angle_gamma    90

_symmetry_Int_Tables_number  14
_chemical_formula_structural  MgAl2P2O10
_chemical_formula_sum  Mg2Al4P4O20
_cell_volume  329.56340609618803
_cell_formula_units_Z  2
loop_
  _symmetry_equiv_pos_site_id
 _symmetry_equiv_pos_as_xyz
 1  'x, y, z'
loop_
 _atom_site_type_symbol
 _atom_site_label
 _atom_site_symmetry_multiplicity
 _atom_site_fract_x
 _atom_site_fract_y
 _atom_site_fract_z
 _atom_site_fract_occupancy
 Al  Al1  1  0.23283  0.22631  0.26649  1
 Al  Al2  1  0.73283  0.27369  0.73351  1
 Al  Al3  1  0.76717  0.77369  0.73351  1
 Al  Al4  1  0.26717  0.72631  0.26649  1
 Mg  Mg1  1  0.50000  0.50000  -0.00000  1
 Mg  Mg2  1  0.00000  0.00000  0.00000  1
 O  O1  1  0.49477  0.19464  0.73822  1
 O  O2  1  0.00523  0.69464  0.73822  1
 O  O3  1  0.50523  0.80536  0.26178  1
 O  O4  1  0.99477  0.30536  0.26178  1
 O  O5  1  0.49234  0.18075  0.21874  1
 O  O6  1  0.99234  0.31925  0.78126  1
 O  O7  1  0.74614  0.08343  0.05230  1
 O  O8  1  0.00766  0.68075  0.21874  1
 O  O9  1  0.50766  0.81925  0.78126  1
 O  O10  1  0.67199  0.50819  0.77004  1
 O  O11  1  0.25386  0.91657  0.94770  1
 O  O12  1  0.76196  0.41815  0.44478  1
 O  O13  1  0.73804  0.91815  0.44478  1
 O  O14  1  0.24614  0.41657  0.94770  1
 O  O15  1  0.26196  0.08185  0.55522  1
 O  O16  1  0.32801  0.49181  0.22996  1
 O  O17  1  0.82801  0.00819  0.77004  1
 O  O18  1  0.75386  0.58343  0.05230  1
 O  O19  1  0.23804  0.58185  0.55522  1
 O  O20  1  0.17199  0.99181  0.22996  1
 P  P1  1  0.88343  0.49127  0.25027  1
 P  P2  1  0.38343  0.00873  0.74973  1
 P  P3  1  0.11657  0.50873  0.74973  1
 P  P4  1  0.61657  0.99127  0.25027  1
