CIF file written using JARVIS-Tools package.
data_V2Fe2PbO8F2
_symmetry_space_group_name_H-M  'C2/m'
_cell_length_a       5.38653
_cell_length_b       5.38654
_cell_length_c       7.78096
_cell_angle_alpha    71.1448
_cell_angle_beta     71.1448
_cell_angle_gamma    66.7841

_symmetry_Int_Tables_number  12
_chemical_formula_structural  V2Fe2PbO8F2
_chemical_formula_sum  V2Fe2PbO8F2
_cell_volume  191.30808544209202
_cell_formula_units_Z  1
loop_
  _symmetry_equiv_pos_site_id
 _symmetry_equiv_pos_as_xyz
 1  'x, y, z'
loop_
 _atom_site_type_symbol
 _atom_site_label
 _atom_site_symmetry_multiplicity
 _atom_site_fract_x
 _atom_site_fract_y
 _atom_site_fract_z
 _atom_site_fract_occupancy
 F  F1  1  0.83231  0.83231  0.59162  1
 F  F2  1  0.16769  0.16769  0.40838  1
 Fe  Fe1  1  0.50000  -0.00000  0.50000  1
 Fe  Fe2  1  0.00000  0.50000  0.50000  1
 O  O1  1  0.67041  0.67041  0.40513  1
 O  O2  1  0.32959  0.32959  0.59487  1
 O  O3  1  0.30206  0.30206  0.96588  1
 O  O4  1  0.69794  0.69794  0.03412  1
 O  O5  1  0.68298  0.19812  0.28101  1
 O  O6  1  0.31702  0.80188  0.71899  1
 O  O7  1  0.80188  0.31702  0.71899  1
 O  O8  1  0.19812  0.68298  0.28101  1
 Pb  Pb1  1  0.00000  0.00000  0.00000  1
 V  V1  1  0.55988  0.55988  0.25067  1
 V  V2  1  0.44012  0.44012  0.74933  1
