CIF file written using JARVIS-Tools package.
data_PuB2Os
_symmetry_space_group_name_H-M  'Pnma'
_cell_length_a       5.35593
_cell_length_b       5.79135
_cell_length_c       6.46831
_cell_angle_alpha    90
_cell_angle_beta     90
_cell_angle_gamma    90

_symmetry_Int_Tables_number  62
_chemical_formula_structural  PuB2Os
_chemical_formula_sum  Pu4B8Os4
_cell_volume  200.63477203029694
_cell_formula_units_Z  4
loop_
  _symmetry_equiv_pos_site_id
 _symmetry_equiv_pos_as_xyz
 1  'x, y, z'
loop_
 _atom_site_type_symbol
 _atom_site_label
 _atom_site_symmetry_multiplicity
 _atom_site_fract_x
 _atom_site_fract_y
 _atom_site_fract_z
 _atom_site_fract_occupancy
 B  B1  1  0.91469  0.13256  0.96426  1
 B  B2  1  0.58531  0.63256  0.53574  1
 B  B3  1  0.41469  0.86744  0.03574  1
 B  B4  1  0.08531  0.36744  0.46426  1
 B  B5  1  0.08531  0.86744  0.03574  1
 B  B6  1  0.41469  0.36744  0.46426  1
 B  B7  1  0.58531  0.13256  0.96426  1
 B  B8  1  0.91469  0.63256  0.53574  1
 Os  Os1  1  0.75000  0.31108  0.68675  1
 Os  Os2  1  0.75000  0.81108  0.81325  1
 Os  Os3  1  0.25000  0.68892  0.31325  1
 Os  Os4  1  0.25000  0.18892  0.18675  1
 Pu  Pu1  1  0.75000  0.49874  0.16325  1
 Pu  Pu2  1  0.75000  0.99874  0.33675  1
 Pu  Pu3  1  0.25000  0.50126  0.83675  1
 Pu  Pu4  1  0.25000  0.00126  0.66325  1
