CIF file written using JARVIS-Tools package.
data_Pr4MgRh
_symmetry_space_group_name_H-M  'F-43m'
_cell_length_a       10.0514
_cell_length_b       10.0514
_cell_length_c       10.0514
_cell_angle_alpha    60
_cell_angle_beta     60
_cell_angle_gamma    60

_symmetry_Int_Tables_number  216
_chemical_formula_structural  Pr4MgRh
_chemical_formula_sum  Pr6Mg4Rh4
_cell_volume  718.0698204154202
_cell_formula_units_Z  4
loop_
  _symmetry_equiv_pos_site_id
 _symmetry_equiv_pos_as_xyz
 1  'x, y, z'
loop_
 _atom_site_type_symbol
 _atom_site_label
 _atom_site_symmetry_multiplicity
 _atom_site_fract_x
 _atom_site_fract_y
 _atom_site_fract_z
 _atom_site_fract_occupancy
 Mg  Mg1  1  0.26267  0.57911  0.57911  1
 Mg  Mg2  1  0.57911  0.26267  0.57911  1
 Mg  Mg3  1  0.57911  0.57911  0.26267  1
 Mg  Mg4  1  0.57911  0.57911  0.57911  1
 Pr  Pr1  1  0.34678  0.34678  0.34678  1
 Pr  Pr2  1  0.81123  0.18877  0.81123  1
 Pr  Pr3  1  0.34678  0.34678  0.95965  1
 Pr  Pr4  1  0.34678  0.95965  0.34678  1
 Pr  Pr5  1  0.95965  0.34678  0.34678  1
 Pr  Pr6  1  0.18877  0.81123  0.81123  1
 Pr  Pr7  1  0.81123  0.18877  0.18877  1
 Pr  Pr8  1  0.56318  0.93682  0.93682  1
 Pr  Pr9  1  0.18877  0.18877  0.81123  1
 Pr  Pr10  1  0.81123  0.81123  0.18877  1
 Pr  Pr11  1  0.93682  0.56318  0.56318  1
 Pr  Pr12  1  0.56318  0.93682  0.56318  1
 Pr  Pr13  1  0.93682  0.56318  0.93682  1
 Pr  Pr14  1  0.56318  0.56318  0.93682  1
 Pr  Pr15  1  0.93682  0.93682  0.56318  1
 Pr  Pr16  1  0.18877  0.81123  0.18877  1
 Rh  Rh1  1  0.14189  0.14189  0.57432  1
 Rh  Rh2  1  0.14189  0.57432  0.14189  1
 Rh  Rh3  1  0.14189  0.14189  0.14189  1
 Rh  Rh4  1  0.57432  0.14189  0.14189  1
