CIF file written using JARVIS-Tools package.
data_K2TiO2F4
_symmetry_space_group_name_H-M  'Cmcm'
_cell_length_a       5.99516
_cell_length_b       5.99517
_cell_length_c       7.56375
_cell_angle_alpha    90
_cell_angle_beta     90
_cell_angle_gamma    100.155

_symmetry_Int_Tables_number  63
_chemical_formula_structural  K2TiO2F4
_chemical_formula_sum  K4Ti2O4F8
_cell_volume  267.5974430783051
_cell_formula_units_Z  2
loop_
  _symmetry_equiv_pos_site_id
 _symmetry_equiv_pos_as_xyz
 1  'x, y, z'
loop_
 _atom_site_type_symbol
 _atom_site_label
 _atom_site_symmetry_multiplicity
 _atom_site_fract_x
 _atom_site_fract_y
 _atom_site_fract_z
 _atom_site_fract_occupancy
 F  F1  1  0.74855  0.74855  0.00618  1
 F  F2  1  0.25145  0.25145  0.50618  1
 F  F3  1  0.21058  0.78942  0.00000  1
 F  F4  1  0.21058  0.78942  0.50000  1
 F  F5  1  0.78942  0.21058  0.00000  1
 F  F6  1  0.78942  0.21058  0.50000  1
 F  F7  1  0.25145  0.25145  -0.00618  1
 F  F8  1  0.74855  0.74855  0.49382  1
 K  K1  1  0.97676  0.50149  0.25000  1
 K  K2  1  0.50149  0.97676  0.25000  1
 K  K3  1  0.02324  0.49851  0.75000  1
 K  K4  1  0.49851  0.02324  0.75000  1
 O  O1  1  -0.00386  -0.00386  0.75000  1
 O  O2  1  0.54258  0.54258  0.75000  1
 O  O3  1  0.45742  0.45742  0.25000  1
 O  O4  1  0.00386  0.00386  0.25000  1
 Ti  Ti1  1  0.00000  0.00000  0.00000  1
 Ti  Ti2  1  0.00000  0.00000  0.50000  1
