CIF file written using JARVIS-Tools package.
data_BBr2
_symmetry_space_group_name_H-M  'P1'
_cell_length_a       3.96734
_cell_length_b       5.89327
_cell_length_c       3.96877
_cell_angle_alpha    97.0549
_cell_angle_beta     115.835
_cell_angle_gamma    80.7486

_symmetry_Int_Tables_number  1
_chemical_formula_structural  BBr2
_chemical_formula_sum  BBr2
_cell_volume  82.28578674261966
_cell_formula_units_Z  1
loop_
  _symmetry_equiv_pos_site_id
 _symmetry_equiv_pos_as_xyz
 1  'x, y, z'
loop_
 _atom_site_type_symbol
 _atom_site_label
 _atom_site_symmetry_multiplicity
 _atom_site_fract_x
 _atom_site_fract_y
 _atom_site_fract_z
 _atom_site_fract_occupancy
 B  B1  1  0.05429  0.87617  0.94626  1
 Br  Br1  1  0.15707  0.54926  0.93977  1
 Br  Br2  1  0.59319  0.01956  0.53387  1
