CIF file written using JARVIS-Tools package.
data_LuAgSe2
_symmetry_space_group_name_H-M  'P2_12_12_1'
_cell_length_a       4.15182
_cell_length_b       6.79509
_cell_length_c       13.5963
_cell_angle_alpha    90
_cell_angle_beta     90
_cell_angle_gamma    90

_symmetry_Int_Tables_number  19
_chemical_formula_structural  LuAgSe2
_chemical_formula_sum  Lu4Ag4Se8
_cell_volume  383.5787447688192
_cell_formula_units_Z  4
loop_
  _symmetry_equiv_pos_site_id
 _symmetry_equiv_pos_as_xyz
 1  'x, y, z'
loop_
 _atom_site_type_symbol
 _atom_site_label
 _atom_site_symmetry_multiplicity
 _atom_site_fract_x
 _atom_site_fract_y
 _atom_site_fract_z
 _atom_site_fract_occupancy
 Ag  Ag1  1  0.51507  0.71031  0.87482  1
 Ag  Ag2  1  0.01507  0.78969  0.12518  1
 Ag  Ag3  1  0.48493  0.21031  0.62518  1
 Ag  Ag4  1  -0.01507  0.28969  0.37482  1
 Lu  Lu1  1  0.28300  0.71132  0.62862  1
 Lu  Lu2  1  0.78300  0.78868  0.37138  1
 Lu  Lu3  1  0.71700  0.21132  0.87138  1
 Lu  Lu4  1  0.21700  0.28868  0.12862  1
 Se  Se1  1  0.78389  0.91766  0.72556  1
 Se  Se2  1  0.28389  0.58234  0.27444  1
 Se  Se3  1  0.21611  0.41766  0.77444  1
 Se  Se4  1  0.71611  0.08234  0.22556  1
 Se  Se5  1  0.77654  0.51615  0.52831  1
 Se  Se6  1  0.27654  0.98385  0.47169  1
 Se  Se7  1  0.22346  0.01615  0.97169  1
 Se  Se8  1  0.72346  0.48385  0.02831  1
