CIF file written using JARVIS-Tools package.
data_Pr3IrBr3
_symmetry_space_group_name_H-M  'I4_132'
_cell_length_a       10.4469
_cell_length_b       10.4469
_cell_length_c       10.4469
_cell_angle_alpha    109.471
_cell_angle_beta     109.471
_cell_angle_gamma    109.471

_symmetry_Int_Tables_number  214
_chemical_formula_structural  Pr3IrBr3
_chemical_formula_sum  Pr2Ir4Br2
_cell_volume  877.699527775593
_cell_formula_units_Z  4
loop_
  _symmetry_equiv_pos_site_id
 _symmetry_equiv_pos_as_xyz
 1  'x, y, z'
loop_
 _atom_site_type_symbol
 _atom_site_label
 _atom_site_symmetry_multiplicity
 _atom_site_fract_x
 _atom_site_fract_y
 _atom_site_fract_z
 _atom_site_fract_occupancy
 Br  Br1  1  0.50813  0.75813  0.51627  1
 Br  Br2  1  0.74187  0.99187  0.98373  1
 Br  Br3  1  0.75813  0.74187  0.25000  1
 Br  Br4  1  0.50813  0.25000  0.99187  1
 Br  Br5  1  0.75813  0.51627  0.50813  1
 Br  Br6  1  0.25000  0.99187  0.50813  1
 Br  Br7  1  0.99187  0.98373  0.74187  1
 Br  Br8  1  0.74187  0.25000  0.75813  1
 Br  Br9  1  0.98373  0.74187  0.99187  1
 Br  Br10  1  0.51627  0.50813  0.75813  1
 Br  Br11  1  0.25000  0.75813  0.74187  1
 Br  Br12  1  0.99187  0.50813  0.25000  1
 Ir  Ir1  1  0.25000  0.25000  0.25000  1
 Ir  Ir2  1  0.50000  0.00000  0.25000  1
 Ir  Ir3  1  -0.00000  0.25000  0.50000  1
 Ir  Ir4  1  0.25000  0.50000  -0.00000  1
 Pr  Pr1  1  0.23658  0.26342  0.75000  1
 Pr  Pr2  1  0.26342  0.01342  0.02685  1
 Pr  Pr3  1  0.01342  0.48658  0.75000  1
 Pr  Pr4  1  0.48658  0.23658  0.47315  1
 Pr  Pr5  1  0.48658  0.75000  0.01342  1
 Pr  Pr6  1  0.01342  0.02685  0.26342  1
 Pr  Pr7  1  0.02685  0.26342  0.01342  1
 Pr  Pr8  1  0.26342  0.75000  0.23658  1
 Pr  Pr9  1  0.23658  0.47315  0.48658  1
 Pr  Pr10  1  0.75000  0.01342  0.48658  1
 Pr  Pr11  1  0.75000  0.23658  0.26342  1
 Pr  Pr12  1  0.47315  0.48658  0.23658  1
