CIF file written using JARVIS-Tools package.
data_InH
_symmetry_space_group_name_H-M  'P1'
_cell_length_a       5.35886
_cell_length_b       4.95244
_cell_length_c       5.02422
_cell_angle_alpha    91.606
_cell_angle_beta     122.382
_cell_angle_gamma    58.6161

_symmetry_Int_Tables_number  1
_chemical_formula_structural  InH
_chemical_formula_sum  In2H2
_cell_volume  90.12211735941298
_cell_formula_units_Z  2
loop_
  _symmetry_equiv_pos_site_id
 _symmetry_equiv_pos_as_xyz
 1  'x, y, z'
loop_
 _atom_site_type_symbol
 _atom_site_label
 _atom_site_symmetry_multiplicity
 _atom_site_fract_x
 _atom_site_fract_y
 _atom_site_fract_z
 _atom_site_fract_occupancy
 H  H1  1  0.63732  0.37101  0.96892  1
 H  H2  1  0.13024  0.71215  0.31068  1
 In  In1  1  0.75901  0.98511  0.82776  1
 In  In2  1  0.25583  0.85477  0.69505  1
