CIF file written using JARVIS-Tools package.
data_B2Br
_symmetry_space_group_name_H-M  'P1'
_cell_length_a       3.23764
_cell_length_b       3.49474
_cell_length_c       5.37512
_cell_angle_alpha    74.316
_cell_angle_beta     89.1362
_cell_angle_gamma    116.726

_symmetry_Int_Tables_number  1
_chemical_formula_structural  B2Br
_chemical_formula_sum  B2Br
_cell_volume  51.6336077423377
_cell_formula_units_Z  1
loop_
  _symmetry_equiv_pos_site_id
 _symmetry_equiv_pos_as_xyz
 1  'x, y, z'
loop_
 _atom_site_type_symbol
 _atom_site_label
 _atom_site_symmetry_multiplicity
 _atom_site_fract_x
 _atom_site_fract_y
 _atom_site_fract_z
 _atom_site_fract_occupancy
 B  B1  1  0.73142  0.05923  0.42669  1
 B  B2  1  0.22390  0.05985  0.42653  1
 Br  Br1  1  0.86579  0.84998  0.82291  1
