CIF file written using JARVIS-Tools package.
data_TmFe4Cu3O12
_symmetry_space_group_name_H-M  'Im-3'
_cell_length_a       6.21034
_cell_length_b       6.21034
_cell_length_c       6.21034
_cell_angle_alpha    109.471
_cell_angle_beta     109.471
_cell_angle_gamma    109.471

_symmetry_Int_Tables_number  204
_chemical_formula_structural  TmFe4Cu3O12
_chemical_formula_sum  TmFe4Cu3O2
_cell_volume  184.38456355729514
_cell_formula_units_Z  1
loop_
  _symmetry_equiv_pos_site_id
 _symmetry_equiv_pos_as_xyz
 1  'x, y, z'
loop_
 _atom_site_type_symbol
 _atom_site_label
 _atom_site_symmetry_multiplicity
 _atom_site_fract_x
 _atom_site_fract_y
 _atom_site_fract_z
 _atom_site_fract_occupancy
 Cu  Cu1  1  0.50000  0.00000  0.50000  1
 Cu  Cu2  1  0.00000  0.50000  0.50000  1
 Cu  Cu3  1  0.50000  0.50000  -0.00000  1
 Fe  Fe1  1  0.00000  0.00000  0.50000  1
 Fe  Fe2  1  0.50000  0.00000  0.00000  1
 Fe  Fe3  1  0.00000  0.50000  -0.00000  1
 Fe  Fe4  1  0.50000  0.50000  0.50000  1
 O  O1  1  0.70140  0.17621  0.87761  1
 O  O2  1  0.17621  0.87761  0.70140  1
 O  O3  1  0.70140  0.82379  0.52519  1
 O  O4  1  0.82379  0.52519  0.70140  1
 O  O5  1  0.17621  0.47481  0.29860  1
 O  O6  1  0.82379  0.12239  0.29860  1
 O  O7  1  0.29860  0.17621  0.47481  1
 O  O8  1  0.52519  0.70140  0.82379  1
 O  O9  1  0.47481  0.29860  0.17621  1
 O  O10  1  0.87761  0.70140  0.17621  1
 O  O11  1  0.29860  0.82379  0.12239  1
 O  O12  1  0.12239  0.29860  0.82379  1
 Tm  Tm1  1  0.00000  0.00000  0.00000  1
