CIF file written using JARVIS-Tools package.
data_LaF3
_symmetry_space_group_name_H-M  'P1'
_cell_length_a       4.45477
_cell_length_b       4.46597
_cell_length_c       3.80047
_cell_angle_alpha    64.6733
_cell_angle_beta     114.868
_cell_angle_gamma    86.6111

_symmetry_Int_Tables_number  1
_chemical_formula_structural  LaF3
_chemical_formula_sum  LaF3
_cell_volume  59.31398087210937
_cell_formula_units_Z  1
loop_
  _symmetry_equiv_pos_site_id
 _symmetry_equiv_pos_as_xyz
 1  'x, y, z'
loop_
 _atom_site_type_symbol
 _atom_site_label
 _atom_site_symmetry_multiplicity
 _atom_site_fract_x
 _atom_site_fract_y
 _atom_site_fract_z
 _atom_site_fract_occupancy
 F  F1  1  0.24725  0.88229  0.81559  1
 F  F2  1  0.83211  0.46604  0.81559  1
 F  F3  1  0.55797  0.15633  0.33462  1
 La  La1  1  0.85422  0.85876  0.13073  1
