CIF file written using JARVIS-Tools package.
data_P2Ir
_symmetry_space_group_name_H-M  'Pmmm'
_cell_length_a       4.95318
_cell_length_b       3.7646
_cell_length_c       2.82285
_cell_angle_alpha    90
_cell_angle_beta     90
_cell_angle_gamma    90

_symmetry_Int_Tables_number  47
_chemical_formula_structural  P2Ir
_chemical_formula_sum  P2Ir
_cell_volume  52.63696904692032
_cell_formula_units_Z  1
loop_
  _symmetry_equiv_pos_site_id
 _symmetry_equiv_pos_as_xyz
 1  'x, y, z'
loop_
 _atom_site_type_symbol
 _atom_site_label
 _atom_site_symmetry_multiplicity
 _atom_site_fract_x
 _atom_site_fract_y
 _atom_site_fract_z
 _atom_site_fract_occupancy
 Ir  Ir1  1  0.00000  0.45067  0.00000  1
 P  P1  1  0.28213  -0.04934  0.00000  1
 P  P2  1  0.71787  -0.04934  0.00000  1
