CIF file written using JARVIS-Tools package.
data_Er3SbO7
_symmetry_space_group_name_H-M  'Cmcm'
_cell_length_a       6.4012
_cell_length_b       6.4012
_cell_length_c       7.44247
_cell_angle_alpha    90
_cell_angle_beta     90
_cell_angle_gamma    109.423

_symmetry_Int_Tables_number  63
_chemical_formula_structural  Er3SbO7
_chemical_formula_sum  Er6Sb2O4
_cell_volume  287.602767333301
_cell_formula_units_Z  2
loop_
  _symmetry_equiv_pos_site_id
 _symmetry_equiv_pos_as_xyz
 1  'x, y, z'
loop_
 _atom_site_type_symbol
 _atom_site_label
 _atom_site_symmetry_multiplicity
 _atom_site_fract_x
 _atom_site_fract_y
 _atom_site_fract_z
 _atom_site_fract_occupancy
 Er  Er1  1  0.99954  0.46798  0.74998  1
 Er  Er2  1  0.00046  0.53202  0.24998  1
 Er  Er3  1  0.53202  0.00046  0.75002  1
 Er  Er4  1  0.46798  0.99954  0.25002  1
 Er  Er5  1  0.50007  0.50007  0.50000  1
 Er  Er6  1  0.49993  0.49993  0.00000  1
 O  O1  1  0.63737  0.36263  0.75000  1
 O  O2  1  0.36263  0.63737  0.25000  1
 O  O3  1  0.32497  0.07421  0.53079  1
 O  O4  1  0.07327  0.92673  0.25000  1
 O  O5  1  0.92571  0.67499  0.53074  1
 O  O6  1  0.92673  0.07327  0.75000  1
 O  O7  1  0.32501  0.07429  0.96926  1
 O  O8  1  0.63053  0.36947  0.25000  1
 O  O9  1  0.36947  0.63053  0.75000  1
 O  O10  1  0.07429  0.32501  0.03074  1
 O  O11  1  0.92579  0.67503  0.96921  1
 O  O12  1  0.07421  0.32497  0.46921  1
 O  O13  1  0.67499  0.92571  0.46926  1
 O  O14  1  0.67503  0.92579  0.03079  1
 Sb  Sb1  1  0.00001  0.00001  0.00000  1
 Sb  Sb2  1  0.99999  0.99999  0.50000  1
