CIF file written using JARVIS-Tools package.
data_B3Br
_symmetry_space_group_name_H-M  'Fmm2'
_cell_length_a       5.82002
_cell_length_b       3.63007
_cell_length_c       3.63072
_cell_angle_alpha    129.221
_cell_angle_beta     96.5275
_cell_angle_gamma    96.5605

_symmetry_Int_Tables_number  42
_chemical_formula_structural  B3Br
_chemical_formula_sum  B3Br
_cell_volume  57.2878757838932
_cell_formula_units_Z  1
loop_
  _symmetry_equiv_pos_site_id
 _symmetry_equiv_pos_as_xyz
 1  'x, y, z'
loop_
 _atom_site_type_symbol
 _atom_site_label
 _atom_site_symmetry_multiplicity
 _atom_site_fract_x
 _atom_site_fract_y
 _atom_site_fract_z
 _atom_site_fract_occupancy
 B  B1  1  0.92118  0.08513  0.88395  1
 B  B2  1  0.92116  0.51174  0.45729  1
 B  B3  1  0.10495  0.38982  0.76188  1
 Br  Br1  1  0.36785  0.02058  0.39247  1
