CIF file written using JARVIS-Tools package.
data_RbLaF4
_symmetry_space_group_name_H-M  'Pnma'
_cell_length_a       3.85695
_cell_length_b       6.48852
_cell_length_c       16.0697
_cell_angle_alpha    90
_cell_angle_beta     90
_cell_angle_gamma    90

_symmetry_Int_Tables_number  62
_chemical_formula_structural  RbLaF4
_chemical_formula_sum  Rb4La4F6
_cell_volume  402.1589826937256
_cell_formula_units_Z  4
loop_
  _symmetry_equiv_pos_site_id
 _symmetry_equiv_pos_as_xyz
 1  'x, y, z'
loop_
 _atom_site_type_symbol
 _atom_site_label
 _atom_site_symmetry_multiplicity
 _atom_site_fract_x
 _atom_site_fract_y
 _atom_site_fract_z
 _atom_site_fract_occupancy
 F  F1  1  0.25000  0.60817  0.36889  1
 F  F2  1  0.25000  0.13549  0.96107  1
 F  F3  1  0.25000  0.63549  0.53893  1
 F  F4  1  0.75000  0.86451  0.03893  1
 F  F5  1  0.75000  0.90576  0.31000  1
 F  F6  1  0.75000  0.00065  0.55659  1
 F  F7  1  0.75000  0.50065  0.94341  1
 F  F8  1  0.75000  0.36451  0.46107  1
 F  F9  1  0.25000  0.49935  0.05659  1
 F  F10  1  0.75000  0.39183  0.63111  1
 F  F11  1  0.75000  0.89183  0.86889  1
 F  F12  1  0.75000  0.40576  0.19000  1
 F  F13  1  0.25000  0.10817  0.13111  1
 F  F14  1  0.25000  0.09424  0.69000  1
 F  F15  1  0.25000  0.59424  0.81000  1
 F  F16  1  0.25000  -0.00065  0.44341  1
 La  La1  1  0.75000  0.24796  0.05883  1
 La  La2  1  0.75000  0.74796  0.44117  1
 La  La3  1  0.25000  0.75204  0.94117  1
 La  La4  1  0.25000  0.25204  0.55883  1
 Rb  Rb1  1  0.25000  0.22527  0.29972  1
 Rb  Rb2  1  0.25000  0.72527  0.20028  1
 Rb  Rb3  1  0.75000  0.77473  0.70028  1
 Rb  Rb4  1  0.75000  0.27473  0.79972  1
