CIF file written using JARVIS-Tools package.
data_Na2LaO2
_symmetry_space_group_name_H-M  'Immm'
_cell_length_a       6.22841
_cell_length_b       6.22841
_cell_length_c       6.22841
_cell_angle_alpha    147.369
_cell_angle_beta     136.11
_cell_angle_gamma    55.7479

_symmetry_Int_Tables_number  71
_chemical_formula_structural  Na2LaO2
_chemical_formula_sum  Na2LaO2
_cell_volume  89.694348706653
_cell_formula_units_Z  1
loop_
  _symmetry_equiv_pos_site_id
 _symmetry_equiv_pos_as_xyz
 1  'x, y, z'
loop_
 _atom_site_type_symbol
 _atom_site_label
 _atom_site_symmetry_multiplicity
 _atom_site_fract_x
 _atom_site_fract_y
 _atom_site_fract_z
 _atom_site_fract_occupancy
 La  La1  1  0.00000  0.50000  0.50000  1
 Na  Na1  1  0.29993  0.79993  0.50000  1
 Na  Na2  1  0.70007  0.20007  0.50000  1
 O  O1  1  0.14588  0.14588  0.00000  1
 O  O2  1  0.85412  0.85412  0.00000  1
