CIF file written using JARVIS-Tools package.
data_CaBC
_symmetry_space_group_name_H-M  'Amm2'
_cell_length_a       2.88247
_cell_length_b       5.00369
_cell_length_c       3.90875
_cell_angle_alpha    90
_cell_angle_beta     90
_cell_angle_gamma    106.731

_symmetry_Int_Tables_number  38
_chemical_formula_structural  CaBC
_chemical_formula_sum  CaBC
_cell_volume  53.98915875998088
_cell_formula_units_Z  1
loop_
  _symmetry_equiv_pos_site_id
 _symmetry_equiv_pos_as_xyz
 1  'x, y, z'
loop_
 _atom_site_type_symbol
 _atom_site_label
 _atom_site_symmetry_multiplicity
 _atom_site_fract_x
 _atom_site_fract_y
 _atom_site_fract_z
 _atom_site_fract_occupancy
 B  B1  1  -0.20493  -0.10705  0.00000  1
 C  C1  1  0.32741  -0.04234  0.00000  1
 Ca  Ca1  1  0.05931  0.42141  0.00000  1
