CIF file written using JARVIS-Tools package.
data_Rb2S2NO6
_symmetry_space_group_name_H-M  'C2/c'
_cell_length_a       7.32861
_cell_length_b       7.32861
_cell_length_c       7.59938
_cell_angle_alpha    86.0041
_cell_angle_beta     86.0041
_cell_angle_gamma    60.7934

_symmetry_Int_Tables_number  15
_chemical_formula_structural  Rb2S2NO6
_chemical_formula_sum  Rb4S4N2O2
_cell_volume  355.0968040671439
_cell_formula_units_Z  2
loop_
  _symmetry_equiv_pos_site_id
 _symmetry_equiv_pos_as_xyz
 1  'x, y, z'
loop_
 _atom_site_type_symbol
 _atom_site_label
 _atom_site_symmetry_multiplicity
 _atom_site_fract_x
 _atom_site_fract_y
 _atom_site_fract_z
 _atom_site_fract_occupancy
 N  N1  1  0.56213  0.43787  0.25000  1
 N  N2  1  0.43787  0.56213  0.75000  1
 O  O1  1  0.63198  0.06661  0.22210  1
 O  O2  1  0.06661  0.63198  0.72210  1
 O  O3  1  0.73423  0.15169  0.48977  1
 O  O4  1  0.15169  0.73423  -0.01023  1
 O  O5  1  0.26577  0.84831  0.51023  1
 O  O6  1  0.84831  0.26577  0.01023  1
 O  O7  1  0.36270  0.29522  0.43236  1
 O  O8  1  0.29522  0.36270  0.93236  1
 O  O9  1  0.63730  0.70478  0.56764  1
 O  O10  1  0.36802  0.93339  0.77790  1
 O  O11  1  0.70478  0.63730  0.06764  1
 O  O12  1  0.93339  0.36802  0.27790  1
 Rb  Rb1  1  -0.00908  0.29466  0.65054  1
 Rb  Rb2  1  0.70534  0.00908  0.84946  1
 Rb  Rb3  1  0.00908  0.70534  0.34946  1
 Rb  Rb4  1  0.29466  -0.00908  0.15054  1
 S  S1  1  0.42568  0.77833  0.64268  1
 S  S2  1  0.22167  0.57432  0.85732  1
 S  S3  1  0.57432  0.22167  0.35732  1
 S  S4  1  0.77833  0.42568  0.14268  1
