CIF file written using JARVIS-Tools package.
data_Y3SOF5
_symmetry_space_group_name_H-M  'Pm'
_cell_length_a       3.66895
_cell_length_b       9.33923
_cell_length_c       9.39438
_cell_angle_alpha    60.5448
_cell_angle_beta     90
_cell_angle_gamma    90

_symmetry_Int_Tables_number  6
_chemical_formula_structural  Y3SOF5
_chemical_formula_sum  Y6S2O2F0
_cell_volume  280.2911317106678
_cell_formula_units_Z  2
loop_
  _symmetry_equiv_pos_site_id
 _symmetry_equiv_pos_as_xyz
 1  'x, y, z'
loop_
 _atom_site_type_symbol
 _atom_site_label
 _atom_site_symmetry_multiplicity
 _atom_site_fract_x
 _atom_site_fract_y
 _atom_site_fract_z
 _atom_site_fract_occupancy
 F  F1  1  0.50000  0.95539  0.43210  1
 F  F2  1  0.00000  0.04701  0.56605  1
 F  F3  1  0.50000  0.73153  0.14783  1
 F  F4  1  0.50000  0.12042  0.71745  1
 F  F5  1  0.50000  0.14311  0.11680  1
 F  F6  1  0.00000  0.27215  0.83928  1
 F  F7  1  0.00000  0.88737  0.27291  1
 F  F8  1  0.00000  0.84379  0.88100  1
 F  F9  1  0.50000  0.62275  0.95266  1
 F  F10  1  0.50000  0.43055  0.62618  1
 O  O1  1  0.00000  0.56378  0.38736  1
 O  O2  1  0.00000  0.38380  0.05166  1
 S  S1  1  0.50000  0.32695  0.33796  1
 S  S2  1  0.00000  0.67087  0.66765  1
 Y  Y1  1  0.50000  0.70492  0.40289  1
 Y  Y2  1  0.50000  0.87731  0.71538  1
 Y  Y3  1  0.50000  0.40344  0.89619  1
 Y  Y4  1  0.00000  0.29847  0.58525  1
 Y  Y5  1  0.00000  0.13197  0.27040  1
 Y  Y6  1  0.00000  0.58444  0.13300  1
