CIF file written using JARVIS-Tools package.
data_YThB8Rh8
_symmetry_space_group_name_H-M  'P-4m2'
_cell_length_a       5.35649
_cell_length_b       5.35649
_cell_length_c       7.55361
_cell_angle_alpha    90
_cell_angle_beta     90
_cell_angle_gamma    90

_symmetry_Int_Tables_number  115
_chemical_formula_structural  YThB8Rh8
_chemical_formula_sum  YThB8Rh8
_cell_volume  216.72820101189993
_cell_formula_units_Z  1
loop_
  _symmetry_equiv_pos_site_id
 _symmetry_equiv_pos_as_xyz
 1  'x, y, z'
loop_
 _atom_site_type_symbol
 _atom_site_label
 _atom_site_symmetry_multiplicity
 _atom_site_fract_x
 _atom_site_fract_y
 _atom_site_fract_z
 _atom_site_fract_occupancy
 B  B1  1  0.33398  0.00000  0.15134  1
 B  B2  1  0.00000  0.33398  0.84866  1
 B  B3  1  0.83269  0.50000  0.35065  1
 B  B4  1  0.16731  0.50000  0.35065  1
 B  B5  1  0.00000  0.66602  0.84866  1
 B  B6  1  0.50000  0.83269  0.64935  1
 B  B7  1  0.66602  0.00000  0.15134  1
 B  B8  1  0.50000  0.16731  0.64935  1
 Rh  Rh1  1  0.74993  0.50000  0.64234  1
 Rh  Rh2  1  0.50000  0.74993  0.35766  1
 Rh  Rh3  1  0.50000  0.25007  0.35766  1
 Rh  Rh4  1  0.24882  0.00000  0.85260  1
 Rh  Rh5  1  0.00000  0.75118  0.14740  1
 Rh  Rh6  1  0.00000  0.24882  0.14740  1
 Rh  Rh7  1  0.25007  0.50000  0.64234  1
 Rh  Rh8  1  0.75118  0.00000  0.85260  1
 Th  Th1  1  0.50000  0.50000  0.00000  1
 Y  Y1  1  0.00000  0.00000  0.50000  1
