CIF file written using JARVIS-Tools package.
data_CuNiSbS3
_symmetry_space_group_name_H-M  'P2_12_12_1'
_cell_length_a       4.86523
_cell_length_b       7.49068
_cell_length_c       12.3928
_cell_angle_alpha    90
_cell_angle_beta     90
_cell_angle_gamma    90

_symmetry_Int_Tables_number  19
_chemical_formula_structural  CuNiSbS3
_chemical_formula_sum  Cu4Ni4Sb4S2
_cell_volume  451.64030954499805
_cell_formula_units_Z  4
loop_
  _symmetry_equiv_pos_site_id
 _symmetry_equiv_pos_as_xyz
 1  'x, y, z'
loop_
 _atom_site_type_symbol
 _atom_site_label
 _atom_site_symmetry_multiplicity
 _atom_site_fract_x
 _atom_site_fract_y
 _atom_site_fract_z
 _atom_site_fract_occupancy
 Cu  Cu1  1  0.52052  0.61803  0.93980  1
 Cu  Cu2  1  0.02052  0.88197  0.06020  1
 Cu  Cu3  1  0.47948  0.11803  0.56020  1
 Cu  Cu4  1  0.97948  0.38197  0.43980  1
 Ni  Ni1  1  0.98987  0.86874  0.74785  1
 Ni  Ni2  1  0.48987  0.63126  0.25215  1
 Ni  Ni3  1  0.01013  0.36874  0.75215  1
 Ni  Ni4  1  0.51013  0.13126  0.24785  1
 S  S1  1  0.21799  0.87019  0.58981  1
 S  S2  1  0.27838  0.37795  0.29611  1
 S  S3  1  0.77838  0.12205  0.70389  1
 S  S4  1  0.72162  0.87795  0.20389  1
 S  S5  1  0.22162  0.62205  0.79611  1
 S  S6  1  0.72934  0.12983  0.40588  1
 S  S7  1  0.22934  0.37017  0.59412  1
 S  S8  1  0.28201  0.12981  0.08981  1
 S  S9  1  0.77066  0.87017  0.90588  1
 S  S10  1  0.78201  0.37019  0.91019  1
 S  S11  1  0.71799  0.62981  0.41019  1
 S  S12  1  0.27066  0.62983  0.09412  1
 Sb  Sb1  1  0.56889  0.62771  0.63546  1
 Sb  Sb2  1  0.93111  0.37229  0.13546  1
 Sb  Sb3  1  0.43111  0.12771  0.86454  1
 Sb  Sb4  1  0.06889  0.87229  0.36454  1
