CIF file written using JARVIS-Tools package.
data_La2S
_symmetry_space_group_name_H-M  'Pmmm'
_cell_length_a       3.87192
_cell_length_b       3.58016
_cell_length_c       7.40407
_cell_angle_alpha    90
_cell_angle_beta     90
_cell_angle_gamma    90

_symmetry_Int_Tables_number  47
_chemical_formula_structural  La2S
_chemical_formula_sum  La2S
_cell_volume  102.63586119917184
_cell_formula_units_Z  1
loop_
  _symmetry_equiv_pos_site_id
 _symmetry_equiv_pos_as_xyz
 1  'x, y, z'
loop_
 _atom_site_type_symbol
 _atom_site_label
 _atom_site_symmetry_multiplicity
 _atom_site_fract_x
 _atom_site_fract_y
 _atom_site_fract_z
 _atom_site_fract_occupancy
 La  La1  1  -0.03337  0.00000  0.73104  1
 La  La2  1  -0.03337  0.00000  0.26896  1
 S  S1  1  0.46673  0.00000  0.00000  1
