CIF file written using JARVIS-Tools package.
data_Y4GeO8F2
_symmetry_space_group_name_H-M  'P1'
_cell_length_a       5.57404
_cell_length_b       6.37064
_cell_length_c       6.84438
_cell_angle_alpha    90.5288
_cell_angle_beta     110.261
_cell_angle_gamma    109.736

_symmetry_Int_Tables_number  1
_chemical_formula_structural  Y4GeO8F2
_chemical_formula_sum  Y4GeO8F2
_cell_volume  212.41224204390332
_cell_formula_units_Z  1
loop_
  _symmetry_equiv_pos_site_id
 _symmetry_equiv_pos_as_xyz
 1  'x, y, z'
loop_
 _atom_site_type_symbol
 _atom_site_label
 _atom_site_symmetry_multiplicity
 _atom_site_fract_x
 _atom_site_fract_y
 _atom_site_fract_z
 _atom_site_fract_occupancy
 F  F1  1  0.63363  0.86174  0.59849  1
 F  F2  1  0.38467  0.14196  0.41274  1
 Ge  Ge1  1  0.07794  0.44482  0.63718  1
 O  O1  1  0.94233  0.25644  0.40156  1
 O  O2  1  0.08603  0.72571  0.64116  1
 O  O3  1  0.52271  0.56815  0.15407  1
 O  O4  1  0.41571  0.43684  0.77465  1
 O  O5  1  0.15721  0.63984  0.18079  1
 O  O6  1  0.88229  0.34770  0.80331  1
 O  O7  1  0.74009  0.97528  0.01373  1
 O  O8  1  0.25831  0.03700  0.99327  1
 Y  Y1  1  0.86355  0.71661  0.88242  1
 Y  Y2  1  0.13111  0.27913  0.14165  1
 Y  Y3  1  0.55588  0.93200  0.25708  1
 Y  Y4  1  0.44423  0.07169  0.74901  1
