CIF file written using JARVIS-Tools package.
data_Dy3BeCrS7
_symmetry_space_group_name_H-M  'P6_3'
_cell_length_a       9.49017
_cell_length_b       9.49017
_cell_length_c       6.0467
_cell_angle_alpha    90
_cell_angle_beta     90
_cell_angle_gamma    120

_symmetry_Int_Tables_number  173
_chemical_formula_structural  Dy3BeCrS7
_chemical_formula_sum  Dy6Be2Cr2S4
_cell_volume  471.62533677528944
_cell_formula_units_Z  2
loop_
  _symmetry_equiv_pos_site_id
 _symmetry_equiv_pos_as_xyz
 1  'x, y, z'
loop_
 _atom_site_type_symbol
 _atom_site_label
 _atom_site_symmetry_multiplicity
 _atom_site_fract_x
 _atom_site_fract_y
 _atom_site_fract_z
 _atom_site_fract_occupancy
 Be  Be1  1  0.66667  0.33333  0.64237  1
 Be  Be2  1  0.33333  0.66667  0.14237  1
 Cr  Cr1  1  0.00000  0.00000  0.05384  1
 Cr  Cr2  1  0.00000  0.00000  0.55384  1
 Dy  Dy1  1  0.76469  0.15844  0.22828  1
 Dy  Dy2  1  0.39375  0.23531  0.22828  1
 Dy  Dy3  1  0.84156  0.60625  0.22828  1
 Dy  Dy4  1  0.23531  0.84156  0.72828  1
 Dy  Dy5  1  0.60625  0.76469  0.72828  1
 Dy  Dy6  1  0.15844  0.39375  0.72828  1
 S  S1  1  0.86717  0.09672  0.81021  1
 S  S2  1  0.66667  0.33333  0.99025  1
 S  S3  1  0.90328  0.77045  0.81021  1
 S  S4  1  0.13283  0.90328  0.31021  1
 S  S5  1  0.77045  0.86717  0.31021  1
 S  S6  1  0.22955  0.13283  0.81021  1
 S  S7  1  0.47566  0.90210  0.01005  1
 S  S8  1  0.52434  0.09790  0.51005  1
 S  S9  1  0.57356  0.47566  0.51005  1
 S  S10  1  0.09790  0.57356  0.01005  1
 S  S11  1  0.09672  0.22955  0.31021  1
 S  S12  1  0.42644  0.52434  0.01005  1
 S  S13  1  0.90210  0.42644  0.51005  1
 S  S14  1  0.33333  0.66667  0.49025  1
