CIF file written using JARVIS-Tools package.
data_Lu2Fe12P7
_symmetry_space_group_name_H-M  'P-6'
_cell_length_a       3.62094
_cell_length_b       8.88472
_cell_length_c       8.88467
_cell_angle_alpha    120.001
_cell_angle_beta     90
_cell_angle_gamma    90

_symmetry_Int_Tables_number  174
_chemical_formula_structural  Lu2Fe12P7
_chemical_formula_sum  Lu2Fe2P7
_cell_volume  247.53238411355295
_cell_formula_units_Z  1
loop_
  _symmetry_equiv_pos_site_id
 _symmetry_equiv_pos_as_xyz
 1  'x, y, z'
loop_
 _atom_site_type_symbol
 _atom_site_label
 _atom_site_symmetry_multiplicity
 _atom_site_fract_x
 _atom_site_fract_y
 _atom_site_fract_z
 _atom_site_fract_occupancy
 Fe  Fe1  1  0.00000  0.57348  0.63108  1
 Fe  Fe2  1  0.00000  0.84423  0.11876  1
 Fe  Fe3  1  0.50000  0.78862  0.88278  1
 Fe  Fe4  1  0.50000  0.09415  0.21139  1
 Fe  Fe5  1  0.50000  0.11724  0.90583  1
 Fe  Fe6  1  0.50000  0.43420  0.38475  1
 Fe  Fe7  1  0.50000  0.95055  0.56580  1
 Fe  Fe8  1  0.50000  0.61525  0.04945  1
 Fe  Fe9  1  0.00000  0.27452  0.15575  1
 Fe  Fe10  1  0.00000  0.88124  0.72549  1
 Fe  Fe11  1  0.00000  0.36892  0.94240  1
 Fe  Fe12  1  0.00000  0.05761  0.42652  1
 Lu  Lu1  1  0.00000  0.66667  0.33334  1
 Lu  Lu2  1  0.50000  0.33333  0.66666  1
 P  P1  1  0.50000  0.88705  0.28895  1
 P  P2  1  0.00000  0.11419  0.70117  1
 P  P3  1  0.00000  0.29882  0.41301  1
 P  P4  1  0.00000  0.58697  0.88580  1
 P  P5  1  0.50000  0.71106  0.59811  1
 P  P6  1  0.50000  0.40190  0.11295  1
 P  P7  1  0.00000  -0.00000  0.00001  1
