CIF file written using JARVIS-Tools package.
data_ThNb4O12
_symmetry_space_group_name_H-M  'Pmm2'
_cell_length_a       5.60549
_cell_length_b       5.59128
_cell_length_c       7.8676
_cell_angle_alpha    90
_cell_angle_beta     90
_cell_angle_gamma    90

_symmetry_Int_Tables_number  25
_chemical_formula_structural  ThNb4O12
_chemical_formula_sum  ThNb4O2
_cell_volume  246.58508200580138
_cell_formula_units_Z  1
loop_
  _symmetry_equiv_pos_site_id
 _symmetry_equiv_pos_as_xyz
 1  'x, y, z'
loop_
 _atom_site_type_symbol
 _atom_site_label
 _atom_site_symmetry_multiplicity
 _atom_site_fract_x
 _atom_site_fract_y
 _atom_site_fract_z
 _atom_site_fract_occupancy
 Nb  Nb1  1  0.26680  0.50000  0.25677  1
 Nb  Nb2  1  0.76363  0.00000  0.26077  1
 Nb  Nb3  1  0.76363  0.00000  0.73923  1
 Nb  Nb4  1  0.26680  0.50000  0.74323  1
 O  O1  1  0.98501  0.26291  0.73634  1
 O  O2  1  0.50941  0.26450  0.19518  1
 O  O3  1  0.50941  0.73550  0.19518  1
 O  O4  1  0.50941  0.26450  0.80482  1
 O  O5  1  0.31247  0.50000  0.50000  1
 O  O6  1  0.50941  0.73550  0.80482  1
 O  O7  1  0.66915  0.00000  0.50000  1
 O  O8  1  0.98501  0.26291  0.26366  1
 O  O9  1  0.98501  0.73709  0.73634  1
 O  O10  1  0.16921  0.50000  0.00000  1
 O  O11  1  0.80282  0.00000  0.00000  1
 O  O12  1  0.98501  0.73709  0.26366  1
 Th  Th1  1  0.76409  0.50000  0.00000  1
