CIF file written using JARVIS-Tools package.
data_Li2As
_symmetry_space_group_name_H-M  'P6/mmm'
_cell_length_a       4.4844
_cell_length_b       3.05849
_cell_length_c       4.48281
_cell_angle_alpha    90
_cell_angle_beta     119.948
_cell_angle_gamma    90

_symmetry_Int_Tables_number  191
_chemical_formula_structural  Li2As
_chemical_formula_sum  Li2As
_cell_volume  53.27453668003279
_cell_formula_units_Z  1
loop_
  _symmetry_equiv_pos_site_id
 _symmetry_equiv_pos_as_xyz
 1  'x, y, z'
loop_
 _atom_site_type_symbol
 _atom_site_label
 _atom_site_symmetry_multiplicity
 _atom_site_fract_x
 _atom_site_fract_y
 _atom_site_fract_z
 _atom_site_fract_occupancy
 As  As1  1  0.46668  0.00000  0.13334  1
 Li  Li1  1  -0.20002  0.00000  -0.20006  1
 Li  Li2  1  0.13334  0.00000  0.46673  1
