CIF file written using JARVIS-Tools package.
data_Ho8In3Co
_symmetry_space_group_name_H-M  'P6_3mc'
_cell_length_a       10.2421
_cell_length_b       10.2421
_cell_length_c       6.91881
_cell_angle_alpha    90
_cell_angle_beta     90
_cell_angle_gamma    120

_symmetry_Int_Tables_number  186
_chemical_formula_structural  Ho8In3Co
_chemical_formula_sum  Ho6In6Co2
_cell_volume  628.5551849025494
_cell_formula_units_Z  2
loop_
  _symmetry_equiv_pos_site_id
 _symmetry_equiv_pos_as_xyz
 1  'x, y, z'
loop_
 _atom_site_type_symbol
 _atom_site_label
 _atom_site_symmetry_multiplicity
 _atom_site_fract_x
 _atom_site_fract_y
 _atom_site_fract_z
 _atom_site_fract_occupancy
 Co  Co1  1  0.33333  0.66667  0.78245  1
 Co  Co2  1  0.66667  0.33333  0.28245  1
 Ho  Ho1  1  0.64347  0.82174  0.71210  1
 Ho  Ho2  1  0.92986  0.46493  0.50478  1
 Ho  Ho3  1  0.53507  0.46493  0.50478  1
 Ho  Ho4  1  0.46493  0.92986  0.00478  1
 Ho  Ho5  1  0.46493  0.53507  0.00478  1
 Ho  Ho6  1  0.17826  0.35653  0.71210  1
 Ho  Ho7  1  0.53507  0.07014  0.50478  1
 Ho  Ho8  1  0.17826  0.82174  0.71210  1
 Ho  Ho9  1  0.82174  0.64347  0.21210  1
 Ho  Ho10  1  0.35653  0.17826  0.21210  1
 Ho  Ho11  1  0.66667  0.33333  0.89583  1
 Ho  Ho12  1  0.33333  0.66667  0.39583  1
 Ho  Ho13  1  0.00000  0.00000  0.49296  1
 Ho  Ho14  1  0.00000  0.00000  0.99296  1
 Ho  Ho15  1  0.82174  0.17826  0.21210  1
 Ho  Ho16  1  0.07014  0.53507  0.00478  1
 In  In1  1  0.83699  0.67398  0.75238  1
 In  In2  1  0.32602  0.16301  0.75238  1
 In  In3  1  0.83699  0.16301  0.75238  1
 In  In4  1  0.16301  0.32602  0.25238  1
 In  In5  1  0.67398  0.83699  0.25238  1
 In  In6  1  0.16301  0.83699  0.25238  1
