CIF file written using JARVIS-Tools package.
data_SrPrAl3O7
_symmetry_space_group_name_H-M  'Cmm2'
_cell_length_a       7.92105
_cell_length_b       7.92104
_cell_length_c       5.23183
_cell_angle_alpha    90
_cell_angle_beta     90
_cell_angle_gamma    89.8299

_symmetry_Int_Tables_number  35
_chemical_formula_structural  SrPrAl3O7
_chemical_formula_sum  Sr2Pr2Al6O4
_cell_volume  328.2585005255096
_cell_formula_units_Z  2
loop_
  _symmetry_equiv_pos_site_id
 _symmetry_equiv_pos_as_xyz
 1  'x, y, z'
loop_
 _atom_site_type_symbol
 _atom_site_label
 _atom_site_symmetry_multiplicity
 _atom_site_fract_x
 _atom_site_fract_y
 _atom_site_fract_z
 _atom_site_fract_occupancy
 Al  Al1  1  0.35756  0.64244  0.03906  1
 Al  Al2  1  0.85563  0.85563  0.96138  1
 Al  Al3  1  0.64244  0.35756  0.03906  1
 Al  Al4  1  0.14437  0.14437  0.96138  1
 Al  Al5  1  0.50000  0.00000  0.99918  1
 Al  Al6  1  -0.00000  0.50000  0.99918  1
 O  O1  1  0.33881  0.09148  0.80509  1
 O  O2  1  0.36806  0.63194  0.70454  1
 O  O3  1  0.66119  0.90852  0.80509  1
 O  O4  1  0.63194  0.36806  0.70454  1
 O  O5  1  0.15078  0.15078  0.29403  1
 O  O6  1  0.00000  0.00000  0.83662  1
 O  O7  1  0.84922  0.84922  0.29403  1
 O  O8  1  0.41862  0.83391  0.18941  1
 O  O9  1  0.16609  0.58138  0.18941  1
 O  O10  1  0.58138  0.16609  0.18941  1
 O  O11  1  0.09148  0.33881  0.80509  1
 O  O12  1  0.50000  0.50000  0.18772  1
 O  O13  1  0.83391  0.41862  0.18941  1
 O  O14  1  0.90852  0.66119  0.80509  1
 Pr  Pr1  1  0.33768  0.33768  0.50970  1
 Pr  Pr2  1  0.66232  0.66232  0.50970  1
 Sr  Sr1  1  0.83929  0.16071  0.49095  1
 Sr  Sr2  1  0.16071  0.83929  0.49095  1
