CIF file written using JARVIS-Tools package.
data_Rb3InI6O18
_symmetry_space_group_name_H-M  'P-1'
_cell_length_a       7.0419
_cell_length_b       7.06082
_cell_length_c       10.6186
_cell_angle_alpha    87.4296
_cell_angle_beta     107.617
_cell_angle_gamma    108.001

_symmetry_Int_Tables_number  2
_chemical_formula_structural  Rb3InI6O18
_chemical_formula_sum  Rb3InI6O8
_cell_volume  477.88940298855897
_cell_formula_units_Z  1
loop_
  _symmetry_equiv_pos_site_id
 _symmetry_equiv_pos_as_xyz
 1  'x, y, z'
loop_
 _atom_site_type_symbol
 _atom_site_label
 _atom_site_symmetry_multiplicity
 _atom_site_fract_x
 _atom_site_fract_y
 _atom_site_fract_z
 _atom_site_fract_occupancy
 I  I1  1  0.03892  0.47665  0.19116  1
 I  I2  1  0.59594  0.45385  0.36794  1
 I  I3  1  0.44162  0.03178  0.80892  1
 I  I4  1  0.40406  0.54615  0.63206  1
 I  I5  1  0.96108  0.52335  0.80884  1
 I  I6  1  0.55838  0.96822  0.19108  1
 In  In1  1  0.50000  0.50000  0.00000  1
 O  O1  1  0.57266  0.82287  0.05106  1
 O  O2  1  0.07778  0.79599  0.81233  1
 O  O3  1  0.92222  0.20401  0.18767  1
 O  O4  1  0.40526  0.80185  0.59513  1
 O  O5  1  0.46511  0.38988  0.18579  1
 O  O6  1  0.04251  0.44829  0.67541  1
 O  O7  1  0.16276  0.45510  0.95168  1
 O  O8  1  0.83724  0.54490  0.04832  1
 O  O9  1  0.95749  0.55171  0.32459  1
 O  O10  1  0.28522  0.84667  0.18808  1
 O  O11  1  0.59474  0.19815  0.40487  1
 O  O12  1  0.30668  0.15721  0.67197  1
 O  O13  1  0.53489  0.61012  0.81421  1
 O  O14  1  0.42734  0.17713  0.94894  1
 O  O15  1  0.66474  0.56466  0.61006  1
 O  O16  1  0.33526  0.43534  0.38994  1
 O  O17  1  0.71478  0.15333  0.81192  1
 O  O18  1  0.69332  0.84279  0.32803  1
 Rb  Rb1  1  0.16059  0.97973  0.39623  1
 Rb  Rb2  1  0.83941  0.02027  0.60377  1
 Rb  Rb3  1  0.00000  0.00000  0.00000  1
