CIF file written using JARVIS-Tools package.
data_LiAs2
_symmetry_space_group_name_H-M  'Pm'
_cell_length_a       8.46684
_cell_length_b       4.23342
_cell_length_c       8.46684
_cell_angle_alpha    90
_cell_angle_beta     90
_cell_angle_gamma    90

_symmetry_Int_Tables_number  6
_chemical_formula_structural  LiAs2
_chemical_formula_sum  LiAs2
_cell_volume  303.4823546407009
_cell_formula_units_Z  1
loop_
  _symmetry_equiv_pos_site_id
 _symmetry_equiv_pos_as_xyz
 1  'x, y, z'
loop_
 _atom_site_type_symbol
 _atom_site_label
 _atom_site_symmetry_multiplicity
 _atom_site_fract_x
 _atom_site_fract_y
 _atom_site_fract_z
 _atom_site_fract_occupancy
 As  As1  1  -0.03252  0.00000  -0.00086  1
 As  As2  1  0.24153  0.00000  -0.00006  1
 Li  Li1  1  -0.00007  0.00000  0.24030  1
