CIF file written using JARVIS-Tools package.
data_Sm2Ga3Fe14C2
_symmetry_space_group_name_H-M  'C2/m'
_cell_length_a       6.49378
_cell_length_b       6.49378
_cell_length_c       6.48987
_cell_angle_alpha    83.6862
_cell_angle_beta     83.6862
_cell_angle_gamma    83.0575

_symmetry_Int_Tables_number  12
_chemical_formula_structural  Sm2Ga3Fe14C2
_chemical_formula_sum  Sm2Ga3Fe4C2
_cell_volume  268.71883401636006
_cell_formula_units_Z  1
loop_
  _symmetry_equiv_pos_site_id
 _symmetry_equiv_pos_as_xyz
 1  'x, y, z'
loop_
 _atom_site_type_symbol
 _atom_site_label
 _atom_site_symmetry_multiplicity
 _atom_site_fract_x
 _atom_site_fract_y
 _atom_site_fract_z
 _atom_site_fract_occupancy
 C  C1  1  -0.00000  0.50000  0.50000  1
 C  C2  1  0.50000  -0.00000  0.50000  1
 Fe  Fe1  1  0.34739  0.84981  0.34424  1
 Fe  Fe2  1  0.09193  0.09193  0.09480  1
 Fe  Fe3  1  0.90807  0.90807  0.90520  1
 Fe  Fe4  1  0.65458  0.65458  0.15305  1
 Fe  Fe5  1  0.65261  0.15019  0.65576  1
 Fe  Fe6  1  0.15019  0.65261  0.65576  1
 Fe  Fe7  1  0.34542  0.34542  0.84695  1
 Fe  Fe8  1  0.84981  0.34739  0.34424  1
 Fe  Fe9  1  0.71520  0.28480  0.00000  1
 Fe  Fe10  1  0.99866  0.71528  0.28546  1
 Fe  Fe11  1  0.71528  0.99866  0.28546  1
 Fe  Fe12  1  0.00134  0.28472  0.71454  1
 Fe  Fe13  1  0.28480  0.71520  -0.00000  1
 Fe  Fe14  1  0.28472  0.00134  0.71454  1
 Ga  Ga1  1  0.50000  0.00000  -0.00000  1
 Ga  Ga2  1  -0.00000  0.50000  -0.00000  1
 Ga  Ga3  1  -0.00000  -0.00000  0.50000  1
 Sm  Sm1  1  0.64890  0.64890  0.66700  1
 Sm  Sm2  1  0.35110  0.35110  0.33300  1
