CIF file written using JARVIS-Tools package.
data_LiAs2
_symmetry_space_group_name_H-M  'P1'
_cell_length_a       5.15282
_cell_length_b       3.57952
_cell_length_c       5.71933
_cell_angle_alpha    130.105
_cell_angle_beta     78.1251
_cell_angle_gamma    127.384

_symmetry_Int_Tables_number  1
_chemical_formula_structural  LiAs2
_chemical_formula_sum  LiAs2
_cell_volume  61.05919956210706
_cell_formula_units_Z  1
loop_
  _symmetry_equiv_pos_site_id
 _symmetry_equiv_pos_as_xyz
 1  'x, y, z'
loop_
 _atom_site_type_symbol
 _atom_site_label
 _atom_site_symmetry_multiplicity
 _atom_site_fract_x
 _atom_site_fract_y
 _atom_site_fract_z
 _atom_site_fract_occupancy
 As  As1  1  0.26129  0.27631  0.61284  1
 As  As2  1  0.53004  0.78116  0.39029  1
 Li  Li1  1  0.89556  0.02679  0.00152  1
