CIF file written using JARVIS-Tools package.
data_LaBO2
_symmetry_space_group_name_H-M  'R-3m'
_cell_length_a       4.85364
_cell_length_b       4.85364
_cell_length_c       4.85364
_cell_angle_alpha    51.5892
_cell_angle_beta     51.5892
_cell_angle_gamma    51.5891

_symmetry_Int_Tables_number  166
_chemical_formula_structural  LaBO2
_chemical_formula_sum  LaBO2
_cell_volume  64.84543249524094
_cell_formula_units_Z  1
loop_
  _symmetry_equiv_pos_site_id
 _symmetry_equiv_pos_as_xyz
 1  'x, y, z'
loop_
 _atom_site_type_symbol
 _atom_site_label
 _atom_site_symmetry_multiplicity
 _atom_site_fract_x
 _atom_site_fract_y
 _atom_site_fract_z
 _atom_site_fract_occupancy
 B  B1  1  0.00000  0.00000  0.00000  1
 La  La1  1  0.50000  0.50000  0.50000  1
 O  O1  1  0.89445  0.89445  0.89445  1
 O  O2  1  0.10555  0.10555  0.10555  1
