CIF file written using JARVIS-Tools package.
data_CrBO4
_symmetry_space_group_name_H-M  'I-4'
_cell_length_a       4.84139
_cell_length_b       4.84139
_cell_length_c       4.84139
_cell_angle_alpha    124.941
_cell_angle_beta     124.941
_cell_angle_gamma    81.6365

_symmetry_Int_Tables_number  82
_chemical_formula_structural  CrBO4
_chemical_formula_sum  CrBO4
_cell_volume  73.38693686529743
_cell_formula_units_Z  1
loop_
  _symmetry_equiv_pos_site_id
 _symmetry_equiv_pos_as_xyz
 1  'x, y, z'
loop_
 _atom_site_type_symbol
 _atom_site_label
 _atom_site_symmetry_multiplicity
 _atom_site_fract_x
 _atom_site_fract_y
 _atom_site_fract_z
 _atom_site_fract_occupancy
 B  B1  1  0.25000  0.75000  0.50000  1
 Cr  Cr1  1  0.00000  0.00000  0.00000  1
 O  O1  1  0.59091  0.01219  0.87628  1
 O  O2  1  0.28537  0.40909  0.42129  1
 O  O3  1  0.13592  0.71463  0.12372  1
 O  O4  1  -0.01220  0.86408  0.57871  1
