CIF file written using JARVIS-Tools package.
data_NdCoSbPbO6
_symmetry_space_group_name_H-M  'Pc'
_cell_length_a       5.78139
_cell_length_b       5.6573
_cell_length_c       9.7284
_cell_angle_alpha    54.8964
_cell_angle_beta     90
_cell_angle_gamma    90

_symmetry_Int_Tables_number  7
_chemical_formula_structural  NdCoSbPbO6
_chemical_formula_sum  Nd2Co2Sb2Pb2O2
_cell_volume  260.31332603184194
_cell_formula_units_Z  2
loop_
  _symmetry_equiv_pos_site_id
 _symmetry_equiv_pos_as_xyz
 1  'x, y, z'
loop_
 _atom_site_type_symbol
 _atom_site_label
 _atom_site_symmetry_multiplicity
 _atom_site_fract_x
 _atom_site_fract_y
 _atom_site_fract_z
 _atom_site_fract_occupancy
 Co  Co1  1  0.73893  0.50416  0.49752  1
 Co  Co2  1  0.26107  0.50416  0.99752  1
 Nd  Nd1  1  0.80758  0.26768  0.24764  1
 Nd  Nd2  1  0.19242  0.26768  0.74764  1
 O  O1  1  0.44654  0.65672  0.54949  1
 O  O2  1  0.54846  0.23536  0.45345  1
 O  O3  1  0.03761  0.31148  0.46302  1
 O  O4  1  0.96239  0.31148  0.96302  1
 O  O5  1  0.55346  0.65672  0.04949  1
 O  O6  1  0.73587  0.85314  0.24664  1
 O  O7  1  0.22164  0.17924  0.25215  1
 O  O8  1  0.98082  0.74422  0.54185  1
 O  O9  1  0.26413  0.85314  0.74664  1
 O  O10  1  0.01918  0.74422  0.04185  1
 O  O11  1  0.77836  0.17924  0.75215  1
 O  O12  1  0.45154  0.23536  0.95345  1
 Pb  Pb1  1  0.27319  0.74806  0.24749  1
 Pb  Pb2  1  0.72681  0.74806  0.74749  1
 Sb  Sb1  1  0.25940  -0.00007  0.50074  1
 Sb  Sb2  1  0.74060  -0.00007  0.00074  1
