CIF file written using JARVIS-Tools package.
data_NaCaBe2B2O6F
_symmetry_space_group_name_H-M  'Cc'
_cell_length_a       4.64563
_cell_length_b       4.64563
_cell_length_c       14.1496
_cell_angle_alpha    89.8787
_cell_angle_beta     89.8787
_cell_angle_gamma    119.965

_symmetry_Int_Tables_number  9
_chemical_formula_structural  NaCaBe2B2O6F
_chemical_formula_sum  Na2Ca2Be4B4O2F2
_cell_volume  264.55373789763917
_cell_formula_units_Z  2
loop_
  _symmetry_equiv_pos_site_id
 _symmetry_equiv_pos_as_xyz
 1  'x, y, z'
loop_
 _atom_site_type_symbol
 _atom_site_label
 _atom_site_symmetry_multiplicity
 _atom_site_fract_x
 _atom_site_fract_y
 _atom_site_fract_z
 _atom_site_fract_occupancy
 B  B1  1  0.77176  0.40825  0.00056  1
 B  B2  1  0.40825  0.77176  0.50056  1
 B  B3  1  0.47568  0.78042  0.22280  1
 B  B4  1  0.78042  0.47568  0.72280  1
 Be  Be1  1  0.74095  0.42140  0.47407  1
 Be  Be2  1  0.42140  0.74095  0.97407  1
 Be  Be3  1  0.79212  0.42866  0.24903  1
 Be  Be4  1  0.42866  0.79212  0.74903  1
 Ca  Ca1  1  0.11458  0.09630  0.61179  1
 Ca  Ca2  1  0.09630  0.11458  0.11179  1
 F  F1  1  0.31170  0.69888  0.86108  1
 F  F2  1  0.69888  0.31170  0.36108  1
 Na  Na1  1  0.11085  0.11969  0.36272  1
 Na  Na2  1  0.11969  0.11085  0.86272  1
 O  O1  1  0.08978  0.52545  0.69549  1
 O  O2  1  0.52545  0.08978  0.19549  1
 O  O3  1  0.50536  0.16763  0.73586  1
 O  O4  1  0.16763  0.50536  0.23586  1
 O  O5  1  0.75568  0.74794  0.23170  1
 O  O6  1  0.44410  0.49536  0.49557  1
 O  O7  1  0.09998  0.74247  0.48573  1
 O  O8  1  0.07987  0.67176  0.02519  1
 O  O9  1  0.67176  0.07987  0.52519  1
 O  O10  1  0.49536  0.44410  0.99557  1
 O  O11  1  0.74247  0.09998  0.98573  1
 O  O12  1  0.74794  0.75568  0.73170  1
