CIF file written using JARVIS-Tools package.
data_Sr2BO3
_symmetry_space_group_name_H-M  'I4/mmm'
_cell_length_a       8.64501
_cell_length_b       8.64501
_cell_length_c       8.64501
_cell_angle_alpha    155.284
_cell_angle_beta     155.284
_cell_angle_gamma    35.2356

_symmetry_Int_Tables_number  139
_chemical_formula_structural  Sr2BO3
_chemical_formula_sum  Sr2BO3
_cell_volume  112.82057484895577
_cell_formula_units_Z  1
loop_
  _symmetry_equiv_pos_site_id
 _symmetry_equiv_pos_as_xyz
 1  'x, y, z'
loop_
 _atom_site_type_symbol
 _atom_site_label
 _atom_site_symmetry_multiplicity
 _atom_site_fract_x
 _atom_site_fract_y
 _atom_site_fract_z
 _atom_site_fract_occupancy
 B  B1  1  0.00000  0.00000  0.00000  1
 O  O1  1  0.50000  0.50000  -0.00000  1
 O  O2  1  0.07957  0.07957  0.00000  1
 O  O3  1  0.92043  0.92043  -0.00000  1
 Sr  Sr1  1  0.62886  0.62886  0.00000  1
 Sr  Sr2  1  0.37114  0.37114  -0.00000  1
