CIF file written using JARVIS-Tools package.
data_MgAlO3
_symmetry_space_group_name_H-M  'Cm'
_cell_length_a       3.75785
_cell_length_b       3.75785
_cell_length_c       3.75302
_cell_angle_alpha    94.9318
_cell_angle_beta     94.9318
_cell_angle_gamma    90.4389

_symmetry_Int_Tables_number  8
_chemical_formula_structural  MgAlO3
_chemical_formula_sum  MgAlO3
_cell_volume  52.60034497412818
_cell_formula_units_Z  1
loop_
  _symmetry_equiv_pos_site_id
 _symmetry_equiv_pos_as_xyz
 1  'x, y, z'
loop_
 _atom_site_type_symbol
 _atom_site_label
 _atom_site_symmetry_multiplicity
 _atom_site_fract_x
 _atom_site_fract_y
 _atom_site_fract_z
 _atom_site_fract_occupancy
 Al  Al1  1  0.02763  0.02763  0.95129  1
 Mg  Mg1  1  0.49096  0.49096  0.67458  1
 O  O1  1  0.52738  0.01857  0.91011  1
 O  O2  1  0.01857  0.52738  0.91011  1
 O  O3  1  0.04882  0.04882  0.44056  1
