CIF file written using JARVIS-Tools package.
data_Nb6ZnS8
_symmetry_space_group_name_H-M  'P-3'
_cell_length_a       9.71352
_cell_length_b       9.71352
_cell_length_c       3.385
_cell_angle_alpha    90
_cell_angle_beta     90
_cell_angle_gamma    120

_symmetry_Int_Tables_number  147
_chemical_formula_structural  Nb6ZnS8
_chemical_formula_sum  Nb6ZnS8
_cell_volume  276.5936810745009
_cell_formula_units_Z  1
loop_
  _symmetry_equiv_pos_site_id
 _symmetry_equiv_pos_as_xyz
 1  'x, y, z'
loop_
 _atom_site_type_symbol
 _atom_site_label
 _atom_site_symmetry_multiplicity
 _atom_site_fract_x
 _atom_site_fract_y
 _atom_site_fract_z
 _atom_site_fract_occupancy
 Nb  Nb1  1  0.11270  0.62724  0.24963  1
 Nb  Nb2  1  0.51454  0.88730  0.24963  1
 Nb  Nb3  1  0.37276  0.48546  0.24963  1
 Nb  Nb4  1  0.88730  0.37276  0.75037  1
 Nb  Nb5  1  0.48546  0.11270  0.75037  1
 Nb  Nb6  1  0.62724  0.51454  0.75037  1
 S  S1  1  0.66667  0.33333  0.25010  1
 S  S2  1  0.33333  0.66667  0.74990  1
 S  S3  1  0.28586  0.94193  0.25057  1
 S  S4  1  0.65607  0.71414  0.25057  1
 S  S5  1  0.05807  0.34393  0.25057  1
 S  S6  1  0.71414  0.05807  0.74943  1
 S  S7  1  0.34393  0.28586  0.74943  1
 S  S8  1  0.94193  0.65607  0.74943  1
 Zn  Zn1  1  0.00000  0.00000  0.50000  1
