CIF file written using JARVIS-Tools package.
data_UAl10Ru2
_symmetry_space_group_name_H-M  'Cmcm'
_cell_length_a       6.83843
_cell_length_b       6.83843
_cell_length_c       9.13967
_cell_angle_alpha    90
_cell_angle_beta     90
_cell_angle_gamma    97.4248

_symmetry_Int_Tables_number  63
_chemical_formula_structural  UAl10Ru2
_chemical_formula_sum  U2Al20Ru4
_cell_volume  423.8249579873243
_cell_formula_units_Z  2
loop_
  _symmetry_equiv_pos_site_id
 _symmetry_equiv_pos_as_xyz
 1  'x, y, z'
loop_
 _atom_site_type_symbol
 _atom_site_label
 _atom_site_symmetry_multiplicity
 _atom_site_fract_x
 _atom_site_fract_y
 _atom_site_fract_z
 _atom_site_fract_occupancy
 Al  Al1  1  0.84471  0.15529  0.39900  1
 Al  Al2  1  0.77746  0.77746  0.50000  1
 Al  Al3  1  0.22254  0.22254  0.00000  1
 Al  Al4  1  0.22254  0.22254  0.50000  1
 Al  Al5  1  0.62416  0.37584  0.95152  1
 Al  Al6  1  0.37584  0.62416  0.04848  1
 Al  Al7  1  0.62416  0.37584  0.54848  1
 Al  Al8  1  0.37584  0.62416  0.45152  1
 Al  Al9  1  0.84471  0.15529  0.10100  1
 Al  Al10  1  0.77746  0.77746  0.00000  1
 Al  Al11  1  0.15529  0.84471  0.89900  1
 Al  Al12  1  0.14329  0.41175  0.25000  1
 Al  Al13  1  0.58825  0.85671  0.25000  1
 Al  Al14  1  0.85671  0.58825  0.75000  1
 Al  Al15  1  0.52008  0.78137  0.75000  1
 Al  Al16  1  0.78137  0.52008  0.25000  1
 Al  Al17  1  0.47992  0.21863  0.25000  1
 Al  Al18  1  0.21863  0.47992  0.75000  1
 Al  Al19  1  0.41175  0.14329  0.75000  1
 Al  Al20  1  0.15529  0.84471  0.60100  1
 Ru  Ru1  1  0.50000  0.00000  0.50000  1
 Ru  Ru2  1  0.50000  0.00000  0.00000  1
 Ru  Ru3  1  -0.00000  0.50000  0.50000  1
 Ru  Ru4  1  -0.00000  0.50000  0.00000  1
 U  U1  1  0.12166  0.87834  0.25000  1
 U  U2  1  0.87834  0.12166  0.75000  1
