CIF file written using JARVIS-Tools package.
data_Li2H
_symmetry_space_group_name_H-M  'P-1'
_cell_length_a       2.82274
_cell_length_b       2.83349
_cell_length_c       5.12023
_cell_angle_alpha    104.523
_cell_angle_beta     105.599
_cell_angle_gamma    59.96

_symmetry_Int_Tables_number  2
_chemical_formula_structural  Li2H
_chemical_formula_sum  Li2H
_cell_volume  33.81298011676849
_cell_formula_units_Z  1
loop_
  _symmetry_equiv_pos_site_id
 _symmetry_equiv_pos_as_xyz
 1  'x, y, z'
loop_
 _atom_site_type_symbol
 _atom_site_label
 _atom_site_symmetry_multiplicity
 _atom_site_fract_x
 _atom_site_fract_y
 _atom_site_fract_z
 _atom_site_fract_occupancy
 H  H1  1  0.05557  -0.08604  0.98921  1
 Li  Li1  1  -0.19760  0.65214  0.22619  1
 Li  Li2  1  0.30866  0.17576  0.75228  1
