CIF file written using JARVIS-Tools package.
data_Nd2Co19Si3
_symmetry_space_group_name_H-M  'C2/m'
_cell_length_a       7.5569
_cell_length_b       7.55691
_cell_length_c       6.305
_cell_angle_alpha    65.5926
_cell_angle_beta     65.5926
_cell_angle_gamma    80.4166

_symmetry_Int_Tables_number  12
_chemical_formula_structural  Nd2Co19Si3
_chemical_formula_sum  Nd2Co9Si3
_cell_volume  298.5737293396643
_cell_formula_units_Z  1
loop_
  _symmetry_equiv_pos_site_id
 _symmetry_equiv_pos_as_xyz
 1  'x, y, z'
loop_
 _atom_site_type_symbol
 _atom_site_label
 _atom_site_symmetry_multiplicity
 _atom_site_fract_x
 _atom_site_fract_y
 _atom_site_fract_z
 _atom_site_fract_occupancy
 Co  Co1  1  0.07851  0.66910  0.69114  1
 Co  Co2  1  0.41888  0.83226  0.93895  1
 Co  Co3  1  0.83226  0.41888  0.93895  1
 Co  Co4  1  0.33082  0.58158  0.35816  1
 Co  Co5  1  0.58158  0.33082  0.35816  1
 Co  Co6  1  0.66910  0.07851  0.69114  1
 Co  Co7  1  0.74660  0.74660  0.62646  1
 Co  Co8  1  0.07995  0.83207  0.22876  1
 Co  Co9  1  0.16793  0.92005  0.77124  1
 Co  Co10  1  0.83207  0.07995  0.22876  1
 Co  Co11  1  0.16774  0.58112  0.06105  1
 Co  Co12  1  0.66918  0.41842  0.64184  1
 Co  Co13  1  0.41842  0.66918  0.64184  1
 Co  Co14  1  0.33090  0.92149  0.30886  1
 Co  Co15  1  0.92149  0.33090  0.30886  1
 Co  Co16  1  0.50000  0.50000  -0.00000  1
 Co  Co17  1  0.25340  0.25340  0.37354  1
 Co  Co18  1  0.58112  0.16774  0.06105  1
 Co  Co19  1  0.92005  0.16793  0.77124  1
 Nd  Nd1  1  0.74729  0.74729  0.12670  1
 Nd  Nd2  1  0.25271  0.25271  0.87330  1
 Si  Si1  1  0.00000  0.50000  0.50000  1
 Si  Si2  1  0.50000  -0.00000  0.50000  1
 Si  Si3  1  -0.00000  -0.00000  0.50000  1
