CIF file written using JARVIS-Tools package.
data_MnCr8Cu3S16
_symmetry_space_group_name_H-M  'P-4m2'
_cell_length_a       6.95978
_cell_length_b       6.95978
_cell_length_c       9.83548
_cell_angle_alpha    90
_cell_angle_beta     90
_cell_angle_gamma    90

_symmetry_Int_Tables_number  115
_chemical_formula_structural  MnCr8Cu3S16
_chemical_formula_sum  MnCr8Cu3S6
_cell_volume  476.41566085935875
_cell_formula_units_Z  1
loop_
  _symmetry_equiv_pos_site_id
 _symmetry_equiv_pos_as_xyz
 1  'x, y, z'
loop_
 _atom_site_type_symbol
 _atom_site_label
 _atom_site_symmetry_multiplicity
 _atom_site_fract_x
 _atom_site_fract_y
 _atom_site_fract_z
 _atom_site_fract_occupancy
 Cr  Cr1  1  0.75367  0.00000  0.62388  1
 Cr  Cr2  1  0.25099  0.50000  0.12393  1
 Cr  Cr3  1  0.24633  0.00000  0.62388  1
 Cr  Cr4  1  0.74901  0.50000  0.12393  1
 Cr  Cr5  1  0.00000  0.24633  0.37612  1
 Cr  Cr6  1  0.50000  0.74901  0.87607  1
 Cr  Cr7  1  0.50000  0.25099  0.87607  1
 Cr  Cr8  1  0.00000  0.75367  0.37612  1
 Cu  Cu1  1  0.00000  0.50000  0.75165  1
 Cu  Cu2  1  0.50000  0.00000  0.24835  1
 Cu  Cu3  1  0.00000  0.00000  0.00000  1
 Mn  Mn1  1  0.50000  0.50000  0.50000  1
 S  S1  1  0.75599  0.50000  0.37370  1
 S  S2  1  0.50000  0.73435  0.11611  1
 S  S3  1  0.24401  0.50000  0.37370  1
 S  S4  1  0.73297  0.00000  0.86490  1
 S  S5  1  0.50000  0.24401  0.62630  1
 S  S6  1  0.00000  0.73297  0.13510  1
 S  S7  1  0.26703  0.00000  0.86490  1
 S  S8  1  0.00000  0.76640  0.61774  1
 S  S9  1  0.73435  0.50000  0.88389  1
 S  S10  1  0.76640  0.00000  0.38226  1
 S  S11  1  0.26565  0.50000  0.88389  1
 S  S12  1  0.50000  0.26565  0.11611  1
 S  S13  1  0.50000  0.75599  0.62630  1
 S  S14  1  0.23360  0.00000  0.38226  1
 S  S15  1  0.00000  0.26703  0.13510  1
 S  S16  1  0.00000  0.23360  0.61774  1
