CIF file written using JARVIS-Tools package.
data_LiH2
_symmetry_space_group_name_H-M  'C2/m'
_cell_length_a       2.94436
_cell_length_b       3.17746
_cell_length_c       2.96707
_cell_angle_alpha    122.32
_cell_angle_beta     73.7893
_cell_angle_gamma    121.486

_symmetry_Int_Tables_number  12
_chemical_formula_structural  LiH2
_chemical_formula_sum  LiH2
_cell_volume  20.004266975182865
_cell_formula_units_Z  1
loop_
  _symmetry_equiv_pos_site_id
 _symmetry_equiv_pos_as_xyz
 1  'x, y, z'
loop_
 _atom_site_type_symbol
 _atom_site_label
 _atom_site_symmetry_multiplicity
 _atom_site_fract_x
 _atom_site_fract_y
 _atom_site_fract_z
 _atom_site_fract_occupancy
 H  H1  1  0.63025  0.50205  0.54811  1
 H  H2  1  0.63048  0.00444  0.55344  1
 Li  Li1  1  0.13034  0.75326  0.05082  1
