CIF file written using JARVIS-Tools package.
data_LiH
_symmetry_space_group_name_H-M  'Cm'
_cell_length_a       2.88568
_cell_length_b       4.85
_cell_length_c       2.88647
_cell_angle_alpha    90.6058
_cell_angle_beta     116.844
_cell_angle_gamma    89.565

_symmetry_Int_Tables_number  8
_chemical_formula_structural  LiH
_chemical_formula_sum  Li2H2
_cell_volume  36.04213792334885
_cell_formula_units_Z  2
loop_
  _symmetry_equiv_pos_site_id
 _symmetry_equiv_pos_as_xyz
 1  'x, y, z'
loop_
 _atom_site_type_symbol
 _atom_site_label
 _atom_site_symmetry_multiplicity
 _atom_site_fract_x
 _atom_site_fract_y
 _atom_site_fract_z
 _atom_site_fract_occupancy
 H  H1  1  0.36041  0.06677  -0.17286  1
 H  H2  1  -0.00590  0.59682  0.19315  1
 Li  Li1  1  0.01698  0.22907  0.17204  1
 Li  Li2  1  0.64842  0.74940  0.54038  1
