CIF file written using JARVIS-Tools package.
data_TiBO4
_symmetry_space_group_name_H-M  'I-4m2'
_cell_length_a       5.08368
_cell_length_b       5.08368
_cell_length_c       5.08368
_cell_angle_alpha    138.586
_cell_angle_beta     138.586
_cell_angle_gamma    60.0069

_symmetry_Int_Tables_number  119
_chemical_formula_structural  TiBO4
_chemical_formula_sum  TiBO4
_cell_volume  56.8995318275887
_cell_formula_units_Z  1
loop_
  _symmetry_equiv_pos_site_id
 _symmetry_equiv_pos_as_xyz
 1  'x, y, z'
loop_
 _atom_site_type_symbol
 _atom_site_label
 _atom_site_symmetry_multiplicity
 _atom_site_fract_x
 _atom_site_fract_y
 _atom_site_fract_z
 _atom_site_fract_occupancy
 B  B1  1  0.00000  0.00000  0.00000  1
 O  O1  1  0.98123  0.48123  0.50000  1
 O  O2  1  0.82431  0.82431  0.00000  1
 O  O3  1  0.51877  0.01877  0.50000  1
 O  O4  1  0.17569  0.17569  0.00000  1
 Ti  Ti1  1  0.75000  0.25000  0.50000  1
