CIF file written using JARVIS-Tools package.
data_MnFe5O8
_symmetry_space_group_name_H-M  'R-3m'
_cell_length_a       5.75891
_cell_length_b       5.7589
_cell_length_c       5.7589
_cell_angle_alpha    60.37
_cell_angle_beta     60.37
_cell_angle_gamma    60.37

_symmetry_Int_Tables_number  166
_chemical_formula_structural  MnFe5O8
_chemical_formula_sum  MnFe5O8
_cell_volume  136.1835222091642
_cell_formula_units_Z  1
loop_
  _symmetry_equiv_pos_site_id
 _symmetry_equiv_pos_as_xyz
 1  'x, y, z'
loop_
 _atom_site_type_symbol
 _atom_site_label
 _atom_site_symmetry_multiplicity
 _atom_site_fract_x
 _atom_site_fract_y
 _atom_site_fract_z
 _atom_site_fract_occupancy
 Fe  Fe1  1  0.12539  0.12539  0.12539  1
 Fe  Fe2  1  0.87461  0.87461  0.87461  1
 Fe  Fe3  1  0.50000  -0.00000  0.50000  1
 Fe  Fe4  1  0.00000  0.50000  0.50000  1
 Fe  Fe5  1  0.50000  0.50000  0.00000  1
 Mn  Mn1  1  0.50000  0.50000  0.50000  1
 O  O1  1  0.73799  0.73799  0.73799  1
 O  O2  1  0.73913  0.28339  0.73913  1
 O  O3  1  0.28339  0.73913  0.73913  1
 O  O4  1  0.73913  0.73913  0.28339  1
 O  O5  1  0.26201  0.26201  0.26201  1
 O  O6  1  0.26087  0.71661  0.26087  1
 O  O7  1  0.71661  0.26087  0.26087  1
 O  O8  1  0.26087  0.26087  0.71661  1
