CIF file written using JARVIS-Tools package.
data_NaSr2LaTi4O12
_symmetry_space_group_name_H-M  'P-42m'
_cell_length_a       5.5044
_cell_length_b       5.5044
_cell_length_c       7.88487
_cell_angle_alpha    90
_cell_angle_beta     90
_cell_angle_gamma    90

_symmetry_Int_Tables_number  111
_chemical_formula_structural  NaSr2LaTi4O12
_chemical_formula_sum  NaSr2LaTi4O2
_cell_volume  238.89935594913257
_cell_formula_units_Z  1
loop_
  _symmetry_equiv_pos_site_id
 _symmetry_equiv_pos_as_xyz
 1  'x, y, z'
loop_
 _atom_site_type_symbol
 _atom_site_label
 _atom_site_symmetry_multiplicity
 _atom_site_fract_x
 _atom_site_fract_y
 _atom_site_fract_z
 _atom_site_fract_occupancy
 La  La1  1  0.00000  0.00000  0.00000  1
 Na  Na1  1  0.50000  0.50000  0.00000  1
 O  O1  1  0.20867  0.20867  0.75496  1
 O  O2  1  0.50000  0.00000  0.00000  1
 O  O3  1  0.28118  0.28118  0.24873  1
 O  O4  1  0.79133  0.79133  0.75496  1
 O  O5  1  0.71882  0.71882  0.24873  1
 O  O6  1  0.28118  0.71882  0.75127  1
 O  O7  1  0.20867  0.79133  0.24504  1
 O  O8  1  0.71882  0.28118  0.75127  1
 O  O9  1  0.00000  0.50000  0.00000  1
 O  O10  1  0.50000  0.00000  0.50000  1
 O  O11  1  0.79133  0.20867  0.24504  1
 O  O12  1  0.00000  0.50000  0.50000  1
 Sr  Sr1  1  0.50000  0.50000  0.50000  1
 Sr  Sr2  1  0.00000  0.00000  0.50000  1
 Ti  Ti1  1  0.00000  0.50000  0.75228  1
 Ti  Ti2  1  0.50000  0.00000  0.24772  1
 Ti  Ti3  1  0.50000  0.00000  0.75228  1
 Ti  Ti4  1  0.00000  0.50000  0.24772  1
