CIF file written using JARVIS-Tools package.
data_MnGa2Ni9
_symmetry_space_group_name_H-M  'P4/mmm'
_cell_length_a       3.58393
_cell_length_b       3.58393
_cell_length_c       10.6463
_cell_angle_alpha    90
_cell_angle_beta     90
_cell_angle_gamma    90

_symmetry_Int_Tables_number  123
_chemical_formula_structural  MnGa2Ni9
_chemical_formula_sum  MnGa2Ni9
_cell_volume  136.74787782499635
_cell_formula_units_Z  1
loop_
  _symmetry_equiv_pos_site_id
 _symmetry_equiv_pos_as_xyz
 1  'x, y, z'
loop_
 _atom_site_type_symbol
 _atom_site_label
 _atom_site_symmetry_multiplicity
 _atom_site_fract_x
 _atom_site_fract_y
 _atom_site_fract_z
 _atom_site_fract_occupancy
 Ga  Ga1  1  0.00000  0.00000  0.33347  1
 Ga  Ga2  1  0.00000  0.00000  0.66654  1
 Mn  Mn1  1  0.00000  0.00000  0.00000  1
 Ni  Ni1  1  0.50000  0.50000  0.00001  1
 Ni  Ni2  1  0.50000  0.50000  0.33205  1
 Ni  Ni3  1  0.50000  0.50000  0.66796  1
 Ni  Ni4  1  0.50000  0.00000  0.16452  1
 Ni  Ni5  1  0.50000  0.00000  0.50001  1
 Ni  Ni6  1  0.50000  0.00000  0.83549  1
 Ni  Ni7  1  0.00000  0.50000  0.16452  1
 Ni  Ni8  1  0.00000  0.50000  0.50001  1
 Ni  Ni9  1  0.00000  0.50000  0.83549  1
