CIF file written using JARVIS-Tools package.
data_Rb2Pd3S4
_symmetry_space_group_name_H-M  'Fddd'
_cell_length_a       14.1797
_cell_length_b       13.4642
_cell_length_c       6.24471
_cell_angle_alpha    83.4382
_cell_angle_beta     70.6165
_cell_angle_gamma    25.9453

_symmetry_Int_Tables_number  70
_chemical_formula_structural  Rb2Pd3S4
_chemical_formula_sum  Rb4Pd6S8
_cell_volume  440.3454344386108
_cell_formula_units_Z  2
loop_
  _symmetry_equiv_pos_site_id
 _symmetry_equiv_pos_as_xyz
 1  'x, y, z'
loop_
 _atom_site_type_symbol
 _atom_site_label
 _atom_site_symmetry_multiplicity
 _atom_site_fract_x
 _atom_site_fract_y
 _atom_site_fract_z
 _atom_site_fract_occupancy
 Pd  Pd1  1  0.50000  0.50000  0.50000  1
 Pd  Pd2  1  0.74954  0.74954  0.25046  1
 Pd  Pd3  1  0.75000  0.75000  0.75000  1
 Pd  Pd4  1  0.50046  0.50046  0.99954  1
 Pd  Pd5  1  0.99954  0.99954  0.50046  1
 Pd  Pd6  1  0.25046  0.25046  0.74954  1
 Rb  Rb1  1  0.07822  0.07822  0.92178  1
 Rb  Rb2  1  0.17178  0.17178  0.32822  1
 Rb  Rb3  1  0.92178  0.92178  0.07822  1
 Rb  Rb4  1  0.32822  0.32822  0.17178  1
 S  S1  1  0.52157  0.85985  0.64643  1
 S  S2  1  0.97215  0.64643  0.85985  1
 S  S3  1  0.60357  0.27785  0.72843  1
 S  S4  1  0.72843  0.39015  0.60357  1
 S  S5  1  0.27785  0.60357  0.39015  1
 S  S6  1  0.39015  0.72843  0.27785  1
 S  S7  1  0.64643  0.97215  0.52157  1
 S  S8  1  0.85985  0.52157  0.97215  1
