CIF file written using JARVIS-Tools package.
data_Ce2Al2PdPt
_symmetry_space_group_name_H-M  'Pmc2_1'
_cell_length_a       4.41366
_cell_length_b       7.13981
_cell_length_c       7.90368
_cell_angle_alpha    90
_cell_angle_beta     90
_cell_angle_gamma    90

_symmetry_Int_Tables_number  26
_chemical_formula_structural  Ce2Al2PdPt
_chemical_formula_sum  Ce4Al4Pd2Pt2
_cell_volume  249.0658560027169
_cell_formula_units_Z  2
loop_
  _symmetry_equiv_pos_site_id
 _symmetry_equiv_pos_as_xyz
 1  'x, y, z'
loop_
 _atom_site_type_symbol
 _atom_site_label
 _atom_site_symmetry_multiplicity
 _atom_site_fract_x
 _atom_site_fract_y
 _atom_site_fract_z
 _atom_site_fract_occupancy
 Al  Al1  1  0.50000  0.34973  0.17729  1
 Al  Al2  1  0.50000  0.84973  0.82271  1
 Al  Al3  1  0.00000  0.65142  0.31703  1
 Al  Al4  1  0.00000  0.15142  0.68297  1
 Ce  Ce1  1  0.50000  0.47166  0.56304  1
 Ce  Ce2  1  0.50000  0.97166  0.43696  1
 Ce  Ce3  1  0.00000  0.52498  0.93275  1
 Ce  Ce4  1  0.00000  0.02498  0.06725  1
 Pd  Pd1  1  0.00000  0.77984  0.64404  1
 Pd  Pd2  1  0.00000  0.27984  0.35596  1
 Pt  Pt1  1  0.50000  0.22237  0.85575  1
 Pt  Pt2  1  0.50000  0.72237  0.14425  1
