CIF file written using JARVIS-Tools package.
data_Zr9Co2P4
_symmetry_space_group_name_H-M  'P4/mbm'
_cell_length_a       12.0768
_cell_length_b       12.0768
_cell_length_c       3.66513
_cell_angle_alpha    90
_cell_angle_beta     90
_cell_angle_gamma    90

_symmetry_Int_Tables_number  127
_chemical_formula_structural  Zr9Co2P4
_chemical_formula_sum  Zr8Co4P8
_cell_volume  534.5526876451913
_cell_formula_units_Z  2
loop_
  _symmetry_equiv_pos_site_id
 _symmetry_equiv_pos_as_xyz
 1  'x, y, z'
loop_
 _atom_site_type_symbol
 _atom_site_label
 _atom_site_symmetry_multiplicity
 _atom_site_fract_x
 _atom_site_fract_y
 _atom_site_fract_z
 _atom_site_fract_occupancy
 Co  Co1  1  0.75049  0.25049  0.00000  1
 Co  Co2  1  0.24951  0.74951  0.00000  1
 Co  Co3  1  0.25049  0.24951  0.00000  1
 Co  Co4  1  0.74951  0.75049  0.00000  1
 P  P1  1  0.27468  0.44357  0.00000  1
 P  P2  1  0.77468  0.05643  0.00000  1
 P  P3  1  0.55643  0.27468  0.00000  1
 P  P4  1  0.22532  0.94357  0.00000  1
 P  P5  1  0.94357  0.77468  0.00000  1
 P  P6  1  0.05643  0.22532  0.00000  1
 P  P7  1  0.72532  0.55643  0.00000  1
 P  P8  1  0.44357  0.72532  0.00000  1
 Zr  Zr1  1  0.62078  0.12078  0.50000  1
 Zr  Zr2  1  0.81885  0.89443  0.50000  1
 Zr  Zr3  1  0.10557  0.81885  0.50000  1
 Zr  Zr4  1  0.18115  0.10557  0.50000  1
 Zr  Zr5  1  0.31885  0.60557  0.50000  1
 Zr  Zr6  1  0.60557  0.68115  0.50000  1
 Zr  Zr7  1  0.39443  0.31885  0.50000  1
 Zr  Zr8  1  0.09572  0.59572  0.00000  1
 Zr  Zr9  1  0.37922  0.87922  0.50000  1
 Zr  Zr10  1  0.12078  0.37922  0.50000  1
 Zr  Zr11  1  0.87922  0.62078  0.50000  1
 Zr  Zr12  1  0.00000  0.00000  0.00000  1
 Zr  Zr13  1  0.50000  0.50000  0.00000  1
 Zr  Zr14  1  0.90428  0.40428  0.00000  1
 Zr  Zr15  1  0.59572  0.90428  0.00000  1
 Zr  Zr16  1  0.40428  0.09572  0.00000  1
 Zr  Zr17  1  0.89443  0.18115  0.50000  1
 Zr  Zr18  1  0.68115  0.39443  0.50000  1
