CIF file written using JARVIS-Tools package.
data_CoNi5S8
_symmetry_space_group_name_H-M  'F-43m'
_cell_length_a       6.67811
_cell_length_b       6.6781
_cell_length_c       6.6781
_cell_angle_alpha    60
_cell_angle_beta     60
_cell_angle_gamma    60

_symmetry_Int_Tables_number  216
_chemical_formula_structural  CoNi5S8
_chemical_formula_sum  CoNi5S8
_cell_volume  210.59308268574708
_cell_formula_units_Z  1
loop_
  _symmetry_equiv_pos_site_id
 _symmetry_equiv_pos_as_xyz
 1  'x, y, z'
loop_
 _atom_site_type_symbol
 _atom_site_label
 _atom_site_symmetry_multiplicity
 _atom_site_fract_x
 _atom_site_fract_y
 _atom_site_fract_z
 _atom_site_fract_occupancy
 Co  Co1  1  0.25000  0.25000  0.25000  1
 Ni  Ni1  1  0.12520  0.62493  0.62493  1
 Ni  Ni2  1  0.62493  0.12520  0.62493  1
 Ni  Ni3  1  0.62493  0.62493  0.12520  1
 Ni  Ni4  1  0.62493  0.62493  0.62493  1
 Ni  Ni5  1  0.00000  0.00000  0.00000  1
 S  S1  1  0.39897  0.86701  0.86701  1
 S  S2  1  0.86701  0.39897  0.86701  1
 S  S3  1  0.86701  0.86701  0.39897  1
 S  S4  1  0.86701  0.86701  0.86701  1
 S  S5  1  0.85623  0.38126  0.38126  1
 S  S6  1  0.38126  0.85623  0.38126  1
 S  S7  1  0.38126  0.38126  0.85623  1
 S  S8  1  0.38126  0.38126  0.38126  1
