CIF file written using JARVIS-Tools package.
data_Ba2Tm2Zn8O13
_symmetry_space_group_name_H-M  'Cm'
_cell_length_a       6.38307
_cell_length_b       6.38308
_cell_length_c       10.1923
_cell_angle_alpha    89.5931
_cell_angle_beta     89.5931
_cell_angle_gamma    60.2375

_symmetry_Int_Tables_number  8
_chemical_formula_structural  Ba2Tm2Zn8O13
_chemical_formula_sum  Ba2Tm2Zn8O3
_cell_volume  360.4818895626185
_cell_formula_units_Z  1
loop_
  _symmetry_equiv_pos_site_id
 _symmetry_equiv_pos_as_xyz
 1  'x, y, z'
loop_
 _atom_site_type_symbol
 _atom_site_label
 _atom_site_symmetry_multiplicity
 _atom_site_fract_x
 _atom_site_fract_y
 _atom_site_fract_z
 _atom_site_fract_occupancy
 Ba  Ba1  1  0.16907  0.16907  0.93914  1
 Ba  Ba2  1  0.83883  0.83883  0.43559  1
 O  O1  1  0.01142  0.01142  0.15596  1
 O  O2  1  0.62124  0.15422  0.93014  1
 O  O3  1  0.82344  0.27887  0.43530  1
 O  O4  1  0.27887  0.82344  0.43530  1
 O  O5  1  -0.00126  0.51015  0.22087  1
 O  O6  1  0.15422  0.62124  0.93014  1
 O  O7  1  0.00113  0.53500  0.64870  1
 O  O8  1  0.49980  0.49980  0.18287  1
 O  O9  1  0.51167  0.51167  0.68313  1
 O  O10  1  0.66628  0.66628  0.93603  1
 O  O11  1  0.53500  0.00113  0.64870  1
 O  O12  1  0.51015  -0.00126  0.22087  1
 O  O13  1  0.02472  0.02472  0.72494  1
 Tm  Tm1  1  0.83433  0.83433  0.80858  1
 Tm  Tm2  1  0.14356  0.14356  0.29934  1
 Zn  Zn1  1  0.32783  0.85204  0.62693  1
 Zn  Zn2  1  0.15870  0.65890  0.12001  1
 Zn  Zn3  1  0.65890  0.15870  0.12001  1
 Zn  Zn4  1  0.85204  0.32783  0.62693  1
 Zn  Zn5  1  0.49731  0.49731  0.88170  1
 Zn  Zn6  1  0.52516  0.52516  0.37039  1
 Zn  Zn7  1  0.67661  0.67661  0.12768  1
 Zn  Zn8  1  0.34089  0.34089  0.64937  1
