CIF file written using JARVIS-Tools package.
data_Tm2MnC4
_symmetry_space_group_name_H-M  'Ibam'
_cell_length_a       6.48997
_cell_length_b       6.48996
_cell_length_c       6.48996
_cell_angle_alpha    134.976
_cell_angle_beta     109.296
_cell_angle_gamma    87.8651

_symmetry_Int_Tables_number  72
_chemical_formula_structural  Tm2MnC4
_chemical_formula_sum  Tm4Mn2C8
_cell_volume  174.44333924976453
_cell_formula_units_Z  2
loop_
  _symmetry_equiv_pos_site_id
 _symmetry_equiv_pos_as_xyz
 1  'x, y, z'
loop_
 _atom_site_type_symbol
 _atom_site_label
 _atom_site_symmetry_multiplicity
 _atom_site_fract_x
 _atom_site_fract_y
 _atom_site_fract_z
 _atom_site_fract_occupancy
 C  C1  1  0.25180  0.07964  0.17216  1
 C  C2  1  0.74820  0.92036  0.82784  1
 C  C3  1  0.90747  0.57964  0.32784  1
 C  C4  1  0.09253  0.42036  0.67216  1
 C  C5  1  0.47364  0.12994  0.34370  1
 C  C6  1  0.52636  0.87006  0.65630  1
 C  C7  1  0.78624  0.62994  0.15630  1
 C  C8  1  0.21376  0.37006  0.84370  1
 Mn  Mn1  1  0.00000  0.25000  0.25000  1
 Mn  Mn2  1  -0.00000  0.75000  0.75000  1
 Tm  Tm1  1  0.50823  0.35427  0.15396  1
 Tm  Tm2  1  0.49177  0.64573  0.84604  1
 Tm  Tm3  1  0.20031  0.85427  0.34604  1
 Tm  Tm4  1  0.79969  0.14573  0.65396  1
