CIF file written using JARVIS-Tools package.
data_YBO4
_symmetry_space_group_name_H-M  'I-4'
_cell_length_a       4.31836
_cell_length_b       4.31836
_cell_length_c       4.31836
_cell_angle_alpha    100.283
_cell_angle_beta     100.283
_cell_angle_gamma    130.014

_symmetry_Int_Tables_number  82
_chemical_formula_structural  YBO4
_chemical_formula_sum  YBO4
_cell_volume  55.901436550338445
_cell_formula_units_Z  1
loop_
  _symmetry_equiv_pos_site_id
 _symmetry_equiv_pos_as_xyz
 1  'x, y, z'
loop_
 _atom_site_type_symbol
 _atom_site_label
 _atom_site_symmetry_multiplicity
 _atom_site_fract_x
 _atom_site_fract_y
 _atom_site_fract_z
 _atom_site_fract_occupancy
 B  B1  1  0.25000  0.75000  0.50000  1
 O  O1  1  0.57889  0.16120  0.79940  1
 O  O2  1  0.22052  0.42111  0.58231  1
 O  O3  1  0.36179  0.77948  0.20059  1
 O  O4  1  -0.16120  0.63821  0.41769  1
 Y  Y1  1  0.00000  0.00000  0.00000  1
