CIF file written using JARVIS-Tools package.
data_LiMn2P2H4O10
_symmetry_space_group_name_H-M  'P1'
_cell_length_a       5.09449
_cell_length_b       5.33613
_cell_length_c       7.53329
_cell_angle_alpha    105.195
_cell_angle_beta     103.698
_cell_angle_gamma    98.5775

_symmetry_Int_Tables_number  1
_chemical_formula_structural  LiMn2P2H4O10
_chemical_formula_sum  LiMn2P2H4O0
_cell_volume  187.07530571329985
_cell_formula_units_Z  1
loop_
  _symmetry_equiv_pos_site_id
 _symmetry_equiv_pos_as_xyz
 1  'x, y, z'
loop_
 _atom_site_type_symbol
 _atom_site_label
 _atom_site_symmetry_multiplicity
 _atom_site_fract_x
 _atom_site_fract_y
 _atom_site_fract_z
 _atom_site_fract_occupancy
 H  H1  1  0.88493  0.93621  0.29359  1
 H  H2  1  0.07529  0.12482  0.20712  1
 H  H3  1  0.11664  0.02342  0.68633  1
 H  H4  1  0.92507  0.85566  0.78654  1
 Li  Li1  1  0.09011  0.39472  0.92047  1
 Mn  Mn1  1  0.98939  0.48994  0.49448  1
 Mn  Mn2  1  0.51228  0.00800  0.00267  1
 O  O1  1  0.10319  0.87862  0.74714  1
 O  O2  1  0.29674  0.65050  0.42220  1
 O  O3  1  0.69082  0.28044  0.89101  1
 O  O4  1  0.32870  0.73883  0.11079  1
 O  O5  1  0.74771  0.66238  0.33398  1
 O  O6  1  0.66955  0.72982  0.84494  1
 O  O7  1  0.24397  0.34671  0.68891  1
 O  O8  1  0.67837  0.33938  0.57126  1
 O  O9  1  0.31962  0.28621  0.13388  1
 O  O10  1  0.90705  0.10371  0.25453  1
 P  P1  1  0.56839  0.42418  0.74663  1
 P  P2  1  0.42717  0.58894  0.25640  1
