CIF file written using JARVIS-Tools package.
data_EuS2
_symmetry_space_group_name_H-M  'P2_1/c'
_cell_length_a       3.95756
_cell_length_b       7.91735
_cell_length_c       7.99292
_cell_angle_alpha    89.9694
_cell_angle_beta     90
_cell_angle_gamma    90

_symmetry_Int_Tables_number  14
_chemical_formula_structural  EuS2
_chemical_formula_sum  Eu4S8
_cell_volume  250.4451591486214
_cell_formula_units_Z  4
loop_
  _symmetry_equiv_pos_site_id
 _symmetry_equiv_pos_as_xyz
 1  'x, y, z'
loop_
 _atom_site_type_symbol
 _atom_site_label
 _atom_site_symmetry_multiplicity
 _atom_site_fract_x
 _atom_site_fract_y
 _atom_site_fract_z
 _atom_site_fract_occupancy
 Eu  Eu1  1  0.28644  0.87104  0.27516  1
 Eu  Eu2  1  0.78644  0.62896  0.72484  1
 Eu  Eu3  1  0.71356  0.12896  0.72484  1
 Eu  Eu4  1  0.21356  0.37104  0.27516  1
 S  S1  1  0.83674  0.88938  0.00272  1
 S  S2  1  0.33674  0.61062  0.99728  1
 S  S3  1  0.16326  0.11062  0.99728  1
 S  S4  1  0.66326  0.38938  0.00272  1
 S  S5  1  0.26001  0.87470  0.63193  1
 S  S6  1  0.76001  0.62530  0.36807  1
 S  S7  1  0.73999  0.12530  0.36807  1
 S  S8  1  0.23999  0.37470  0.63193  1
