CIF file written using JARVIS-Tools package.
data_Y2GaN3
_symmetry_space_group_name_H-M  'Cmc2_1'
_cell_length_a       6.53465
_cell_length_b       6.3753
_cell_length_c       5.07489
_cell_angle_alpha    90
_cell_angle_beta     90
_cell_angle_gamma    119.197

_symmetry_Int_Tables_number  36
_chemical_formula_structural  Y2GaN3
_chemical_formula_sum  Y4Ga2N6
_cell_volume  184.5609693817714
_cell_formula_units_Z  2
loop_
  _symmetry_equiv_pos_site_id
 _symmetry_equiv_pos_as_xyz
 1  'x, y, z'
loop_
 _atom_site_type_symbol
 _atom_site_label
 _atom_site_symmetry_multiplicity
 _atom_site_fract_x
 _atom_site_fract_y
 _atom_site_fract_z
 _atom_site_fract_occupancy
 Ga  Ga1  1  0.00000  0.66332  0.47689  1
 Ga  Ga2  1  -0.00000  0.33668  0.97689  1
 N  N1  1  0.30666  0.33101  0.91774  1
 N  N2  1  0.69334  0.02435  0.91774  1
 N  N3  1  0.69334  0.66899  0.41774  1
 N  N4  1  0.30666  0.97565  0.41774  1
 N  N5  1  0.00000  0.62714  0.86220  1
 N  N6  1  -0.00000  0.37286  0.36220  1
 Y  Y1  1  0.31860  0.34207  0.44872  1
 Y  Y2  1  0.68140  0.02348  0.44872  1
 Y  Y3  1  0.68140  0.65793  0.94872  1
 Y  Y4  1  0.31860  0.97652  0.94872  1
