CIF file written using JARVIS-Tools package.
data_Tb5BiPt2
_symmetry_space_group_name_H-M  'I4/mcm'
_cell_length_a       8.76971
_cell_length_b       8.76971
_cell_length_c       8.76971
_cell_angle_alpha    126.618
_cell_angle_beta     126.618
_cell_angle_gamma    78.8741

_symmetry_Int_Tables_number  140
_chemical_formula_structural  Tb5BiPt2
_chemical_formula_sum  Tb0Bi2Pt4
_cell_volume  420.38496464190456
_cell_formula_units_Z  2
loop_
  _symmetry_equiv_pos_site_id
 _symmetry_equiv_pos_as_xyz
 1  'x, y, z'
loop_
 _atom_site_type_symbol
 _atom_site_label
 _atom_site_symmetry_multiplicity
 _atom_site_fract_x
 _atom_site_fract_y
 _atom_site_fract_z
 _atom_site_fract_occupancy
 Bi  Bi1  1  0.25000  0.25000  -0.00000  1
 Bi  Bi2  1  0.75000  0.75000  -0.00000  1
 Pt  Pt1  1  0.14036  0.64036  0.78073  1
 Pt  Pt2  1  0.85964  0.35964  0.21927  1
 Pt  Pt3  1  0.64036  0.85964  0.50000  1
 Pt  Pt4  1  0.35964  0.14036  0.50000  1
 Tb  Tb1  1  0.00000  0.00000  0.00000  1
 Tb  Tb2  1  0.50000  0.50000  -0.00000  1
 Tb  Tb3  1  0.79176  0.29176  0.80944  1
 Tb  Tb4  1  0.20824  0.70824  0.19056  1
 Tb  Tb5  1  0.48232  0.98232  0.19056  1
 Tb  Tb6  1  0.29176  0.48232  0.50000  1
 Tb  Tb7  1  0.01768  0.20824  0.50000  1
 Tb  Tb8  1  0.51768  0.01768  0.80944  1
 Tb  Tb9  1  0.70824  0.51768  0.50000  1
 Tb  Tb10  1  0.98232  0.79176  0.50000  1
