CIF file written using JARVIS-Tools package.
data_LiH2
_symmetry_space_group_name_H-M  'I4/mmm'
_cell_length_a       2.96273
_cell_length_b       3.1653
_cell_length_c       2.96116
_cell_angle_alpha    57.6606
_cell_angle_beta     73.3573
_cell_angle_gamma    57.646

_symmetry_Int_Tables_number  139
_chemical_formula_structural  LiH2
_chemical_formula_sum  LiH2
_cell_volume  19.819944875484858
_cell_formula_units_Z  1
loop_
  _symmetry_equiv_pos_site_id
 _symmetry_equiv_pos_as_xyz
 1  'x, y, z'
loop_
 _atom_site_type_symbol
 _atom_site_label
 _atom_site_symmetry_multiplicity
 _atom_site_fract_x
 _atom_site_fract_y
 _atom_site_fract_z
 _atom_site_fract_occupancy
 H  H1  1  0.55578  0.17392  0.39932  1
 H  H2  1  0.55559  0.67403  0.39892  1
 Li  Li1  1  0.05568  0.92393  0.89913  1
