CIF file written using JARVIS-Tools package.
data_Sm2Ta2O9
_symmetry_space_group_name_H-M  'C2/m'
_cell_length_a       3.86781
_cell_length_b       6.65842
_cell_length_c       15.3312
_cell_angle_alpha    67.8337
_cell_angle_beta     90
_cell_angle_gamma    90

_symmetry_Int_Tables_number  12
_chemical_formula_structural  Sm2Ta2O9
_chemical_formula_sum  Sm4Ta4O8
_cell_volume  365.6520993301094
_cell_formula_units_Z  2
loop_
  _symmetry_equiv_pos_site_id
 _symmetry_equiv_pos_as_xyz
 1  'x, y, z'
loop_
 _atom_site_type_symbol
 _atom_site_label
 _atom_site_symmetry_multiplicity
 _atom_site_fract_x
 _atom_site_fract_y
 _atom_site_fract_z
 _atom_site_fract_occupancy
 O  O1  1  0.50002  0.34903  0.94980  1
 O  O2  1  0.99999  0.33818  0.08298  1
 O  O3  1  0.00001  0.66182  0.91702  1
 O  O4  1  0.49999  0.66182  0.41702  1
 O  O5  1  0.50001  0.33818  0.58298  1
 O  O6  1  0.49996  0.41997  0.32123  1
 O  O7  1  0.50011  0.06435  0.78150  1
 O  O8  1  0.99989  0.06435  0.28150  1
 O  O9  1  0.49989  0.93565  0.21850  1
 O  O10  1  0.00000  0.00000  0.00000  1
 O  O11  1  0.50000  -0.00000  0.50000  1
 O  O12  1  0.49998  0.65097  0.05020  1
 O  O13  1  0.50004  0.58003  0.67877  1
 O  O14  1  0.99998  0.34903  0.44980  1
 O  O15  1  0.00002  0.65097  0.55020  1
 O  O16  1  0.99996  0.58003  0.17877  1
 O  O17  1  0.00004  0.41997  0.82123  1
 O  O18  1  0.00011  0.93565  0.71850  1
 Sm  Sm1  1  0.50005  0.69098  0.80465  1
 Sm  Sm2  1  0.49995  0.30902  0.19535  1
 Sm  Sm3  1  0.00005  0.30902  0.69535  1
 Sm  Sm4  1  0.99995  0.69098  0.30465  1
 Ta  Ta1  1  0.50004  0.69279  0.54062  1
 Ta  Ta2  1  0.49996  0.30721  0.45938  1
 Ta  Ta3  1  0.00004  0.30721  0.95938  1
 Ta  Ta4  1  0.99996  0.69279  0.04062  1
