CIF file written using JARVIS-Tools package.
data_Sr3Ir2N4
_symmetry_space_group_name_H-M  'C2/c'
_cell_length_a       7.3684
_cell_length_b       9.29182
_cell_length_c       5.5517
_cell_angle_alpha    90
_cell_angle_beta     91.7315
_cell_angle_gamma    129.088

_symmetry_Int_Tables_number  15
_chemical_formula_structural  Sr3Ir2N4
_chemical_formula_sum  Sr6Ir4N8
_cell_volume  294.8012922339113
_cell_formula_units_Z  2
loop_
  _symmetry_equiv_pos_site_id
 _symmetry_equiv_pos_as_xyz
 1  'x, y, z'
loop_
 _atom_site_type_symbol
 _atom_site_label
 _atom_site_symmetry_multiplicity
 _atom_site_fract_x
 _atom_site_fract_y
 _atom_site_fract_z
 _atom_site_fract_occupancy
 Ir  Ir1  1  0.53220  0.15251  0.58618  1
 Ir  Ir2  1  0.53220  0.37969  0.08618  1
 Ir  Ir3  1  0.46780  0.84749  0.41382  1
 Ir  Ir4  1  0.46780  0.62031  0.91382  1
 N  N1  1  0.67131  0.27018  0.92431  1
 N  N2  1  0.21413  0.27715  0.04024  1
 N  N3  1  0.78587  0.06303  0.45976  1
 N  N4  1  0.78587  0.72285  0.95976  1
 N  N5  1  0.21413  0.93697  0.54024  1
 N  N6  1  0.32869  0.72982  0.07569  1
 N  N7  1  0.67131  0.40113  0.42431  1
 N  N8  1  0.32869  0.59887  0.57569  1
 Sr  Sr1  1  0.00000  0.40332  0.25000  1
 Sr  Sr2  1  -0.00000  0.59668  0.75000  1
 Sr  Sr3  1  0.23697  0.26990  0.55623  1
 Sr  Sr4  1  0.76303  0.03292  0.94377  1
 Sr  Sr5  1  0.76303  0.73010  0.44377  1
 Sr  Sr6  1  0.23697  0.96708  0.05623  1
