CIF file written using JARVIS-Tools package.
data_LiH2
_symmetry_space_group_name_H-M  'C2/m'
_cell_length_a       2.97366
_cell_length_b       2.97402
_cell_length_c       3.38874
_cell_angle_alpha    54.3484
_cell_angle_beta     125.651
_cell_angle_gamma    105.018

_symmetry_Int_Tables_number  12
_chemical_formula_structural  LiH2
_chemical_formula_sum  LiH2
_cell_volume  19.64007452188914
_cell_formula_units_Z  1
loop_
  _symmetry_equiv_pos_site_id
 _symmetry_equiv_pos_as_xyz
 1  'x, y, z'
loop_
 _atom_site_type_symbol
 _atom_site_label
 _atom_site_symmetry_multiplicity
 _atom_site_fract_x
 _atom_site_fract_y
 _atom_site_fract_z
 _atom_site_fract_occupancy
 H  H1  1  0.43430  0.79265  0.69341  1
 H  H2  1  0.89315  0.33385  0.14479  1
 Li  Li1  1  0.16385  0.06312  0.91924  1
