CIF file written using JARVIS-Tools package.
data_Mg2VCr3S8
_symmetry_space_group_name_H-M  'R-3m'
_cell_length_a       7.20455
_cell_length_b       7.20423
_cell_length_c       7.2041
_cell_angle_alpha    60.1315
_cell_angle_beta     60.1277
_cell_angle_gamma    60.1264

_symmetry_Int_Tables_number  166
_chemical_formula_structural  Mg2VCr3S8
_chemical_formula_sum  Mg2VCr3S8
_cell_volume  265.1683437219156
_cell_formula_units_Z  1
loop_
  _symmetry_equiv_pos_site_id
 _symmetry_equiv_pos_as_xyz
 1  'x, y, z'
loop_
 _atom_site_type_symbol
 _atom_site_label
 _atom_site_symmetry_multiplicity
 _atom_site_fract_x
 _atom_site_fract_y
 _atom_site_fract_z
 _atom_site_fract_occupancy
 Cr  Cr1  1  0.50000  0.50000  1.00000  1
 Cr  Cr2  1  0.00000  0.50000  0.50000  1
 Cr  Cr3  1  0.50000  1.00000  0.50000  1
 Mg  Mg1  1  0.87558  0.87559  0.87559  1
 Mg  Mg2  1  0.12441  0.12441  0.12441  1
 S  S1  1  0.73742  0.73745  0.73747  1
 S  S2  1  0.26128  0.26132  0.71296  1
 S  S3  1  0.26127  0.71296  0.26132  1
 S  S4  1  0.71296  0.26126  0.26128  1
 S  S5  1  0.73873  0.28704  0.73868  1
 S  S6  1  0.28704  0.73873  0.73872  1
 S  S7  1  0.26258  0.26255  0.26253  1
 S  S8  1  0.73872  0.73868  0.28704  1
 V  V1  1  0.50000  0.50000  0.50000  1
