CIF file written using JARVIS-Tools package.
data_Sr3Sc2N4
_symmetry_space_group_name_H-M  'C2/c'
_cell_length_a       7.29331
_cell_length_b       9.22098
_cell_length_c       6.10334
_cell_angle_alpha    90
_cell_angle_beta     91.9757
_cell_angle_gamma    129.209

_symmetry_Int_Tables_number  15
_chemical_formula_structural  Sr3Sc2N4
_chemical_formula_sum  Sr6Sc4N8
_cell_volume  317.7263643883304
_cell_formula_units_Z  2
loop_
  _symmetry_equiv_pos_site_id
 _symmetry_equiv_pos_as_xyz
 1  'x, y, z'
loop_
 _atom_site_type_symbol
 _atom_site_label
 _atom_site_symmetry_multiplicity
 _atom_site_fract_x
 _atom_site_fract_y
 _atom_site_fract_z
 _atom_site_fract_occupancy
 N  N1  1  0.67224  0.41172  0.42554  1
 N  N2  1  0.67224  0.26052  0.92554  1
 N  N3  1  0.23674  0.30219  0.01411  1
 N  N4  1  0.76326  0.06545  0.48589  1
 N  N5  1  0.76326  0.69781  0.98589  1
 N  N6  1  0.23674  0.93455  0.51411  1
 N  N7  1  0.32776  0.73948  0.07446  1
 N  N8  1  0.32776  0.58828  0.57446  1
 Sc  Sc1  1  0.41074  0.58908  0.90742  1
 Sc  Sc2  1  0.58926  0.17834  0.59258  1
 Sc  Sc3  1  0.58926  0.41092  0.09258  1
 Sc  Sc4  1  0.41074  0.82166  0.40742  1
 Sr  Sr1  1  -0.00000  0.39153  0.25000  1
 Sr  Sr2  1  0.00000  0.60847  0.75000  1
 Sr  Sr3  1  0.22791  0.25404  0.55978  1
 Sr  Sr4  1  0.77209  0.02614  0.94022  1
 Sr  Sr5  1  0.77209  0.74596  0.44022  1
 Sr  Sr6  1  0.22791  0.97386  0.05978  1
