CIF file written using JARVIS-Tools package.
data_Nd2Al9Ir3
_symmetry_space_group_name_H-M  'Cmcm'
_cell_length_a       7.59949
_cell_length_b       7.59949
_cell_length_c       9.64638
_cell_angle_alpha    90
_cell_angle_beta     90
_cell_angle_gamma    119.484

_symmetry_Int_Tables_number  63
_chemical_formula_structural  Nd2Al9Ir3
_chemical_formula_sum  Nd4Al8Ir6
_cell_volume  484.9524388444251
_cell_formula_units_Z  2
loop_
  _symmetry_equiv_pos_site_id
 _symmetry_equiv_pos_as_xyz
 1  'x, y, z'
loop_
 _atom_site_type_symbol
 _atom_site_label
 _atom_site_symmetry_multiplicity
 _atom_site_fract_x
 _atom_site_fract_y
 _atom_site_fract_z
 _atom_site_fract_occupancy
 Al  Al1  1  0.66488  0.99739  0.57230  1
 Al  Al2  1  0.86909  0.86909  0.75000  1
 Al  Al3  1  0.00261  0.33512  0.07230  1
 Al  Al4  1  0.99739  0.66488  0.92770  1
 Al  Al5  1  0.99739  0.66488  0.57230  1
 Al  Al6  1  0.33512  0.00261  0.42770  1
 Al  Al7  1  0.00261  0.33512  0.42770  1
 Al  Al8  1  0.33512  0.00261  0.07230  1
 Al  Al9  1  0.33442  0.33442  0.55005  1
 Al  Al10  1  0.13091  0.13091  0.25000  1
 Al  Al11  1  0.66558  0.66558  0.44995  1
 Al  Al12  1  0.33442  0.33442  0.94995  1
 Al  Al13  1  0.33896  0.54588  0.25000  1
 Al  Al14  1  0.66104  0.45412  0.75000  1
 Al  Al15  1  0.54588  0.33896  0.25000  1
 Al  Al16  1  0.45412  0.66104  0.75000  1
 Al  Al17  1  0.66558  0.66558  0.05005  1
 Al  Al18  1  0.66488  0.99739  0.92770  1
 Ir  Ir1  1  0.00000  0.00000  0.00000  1
 Ir  Ir2  1  0.67083  0.32917  0.00000  1
 Ir  Ir3  1  0.32917  0.67083  0.00000  1
 Ir  Ir4  1  0.32917  0.67083  0.50000  1
 Ir  Ir5  1  0.00000  0.00000  0.50000  1
 Ir  Ir6  1  0.67083  0.32917  0.50000  1
 Nd  Nd1  1  0.32945  0.00447  0.75000  1
 Nd  Nd2  1  0.67055  0.99553  0.25000  1
 Nd  Nd3  1  0.00447  0.32945  0.75000  1
 Nd  Nd4  1  0.99553  0.67055  0.25000  1
