CIF file written using JARVIS-Tools package.
data_NaVH8N2F6
_symmetry_space_group_name_H-M  'Fm-3m'
_cell_length_a       5.93306
_cell_length_b       5.93307
_cell_length_c       5.93306
_cell_angle_alpha    60
_cell_angle_beta     60
_cell_angle_gamma    60

_symmetry_Int_Tables_number  225
_chemical_formula_structural  NaVH8N2F6
_chemical_formula_sum  NaVH8N2F6
_cell_volume  147.680215433816
_cell_formula_units_Z  1
loop_
  _symmetry_equiv_pos_site_id
 _symmetry_equiv_pos_as_xyz
 1  'x, y, z'
loop_
 _atom_site_type_symbol
 _atom_site_label
 _atom_site_symmetry_multiplicity
 _atom_site_fract_x
 _atom_site_fract_y
 _atom_site_fract_z
 _atom_site_fract_occupancy
 F  F1  1  0.76560  0.76560  0.23440  1
 F  F2  1  0.23440  0.76560  0.23440  1
 F  F3  1  0.23440  0.76560  0.76560  1
 F  F4  1  0.76560  0.23440  0.23440  1
 F  F5  1  0.23440  0.23440  0.76560  1
 F  F6  1  0.76560  0.23440  0.76560  1
 H  H1  1  0.32062  0.03815  0.32062  1
 H  H2  1  0.32062  0.32062  0.32062  1
 H  H3  1  0.32062  0.32062  0.03815  1
 H  H4  1  0.03815  0.32062  0.32062  1
 H  H5  1  0.67938  0.67938  0.96185  1
 H  H6  1  0.67938  0.96185  0.67938  1
 H  H7  1  0.96185  0.67938  0.67938  1
 H  H8  1  0.67938  0.67938  0.67938  1
 N  N1  1  0.25000  0.25000  0.25000  1
 N  N2  1  0.75000  0.75000  0.75000  1
 Na  Na1  1  0.50000  0.50000  0.50000  1
 V  V1  1  0.00000  0.00000  0.00000  1
