CIF file written using JARVIS-Tools package.
data_Sr5V2N6
_symmetry_space_group_name_H-M  'C2/c'
_cell_length_a       6.13477
_cell_length_b       6.55598
_cell_length_c       13.6774
_cell_angle_alpha    90
_cell_angle_beta     99.8705
_cell_angle_gamma    122.298

_symmetry_Int_Tables_number  15
_chemical_formula_structural  Sr5V2N6
_chemical_formula_sum  Sr0V4N2
_cell_volume  455.32388649034436
_cell_formula_units_Z  2
loop_
  _symmetry_equiv_pos_site_id
 _symmetry_equiv_pos_as_xyz
 1  'x, y, z'
loop_
 _atom_site_type_symbol
 _atom_site_label
 _atom_site_symmetry_multiplicity
 _atom_site_fract_x
 _atom_site_fract_y
 _atom_site_fract_z
 _atom_site_fract_occupancy
 N  N1  1  0.54716  0.33745  0.06605  1
 N  N2  1  0.54716  0.20971  0.56605  1
 N  N3  1  0.29899  0.60188  0.14176  1
 N  N4  1  0.70101  0.30289  0.35824  1
 N  N5  1  0.70101  0.39812  0.85824  1
 N  N6  1  0.29899  0.69711  0.64176  1
 N  N7  1  0.88129  0.88969  0.12837  1
 N  N8  1  0.11871  0.00840  0.37163  1
 N  N9  1  0.11871  0.11031  0.87163  1
 N  N10  1  0.88129  0.99160  0.62837  1
 N  N11  1  0.45284  0.79029  0.43395  1
 N  N12  1  0.45284  0.66255  0.93395  1
 Sr  Sr1  1  0.13789  0.80962  0.99799  1
 Sr  Sr2  1  -0.00000  0.61816  0.25000  1
 Sr  Sr3  1  0.00000  0.38184  0.75000  1
 Sr  Sr4  1  0.31567  0.24694  0.21803  1
 Sr  Sr5  1  0.68433  0.93126  0.28197  1
 Sr  Sr6  1  0.68433  0.75306  0.78197  1
 Sr  Sr7  1  0.31567  0.06874  0.71803  1
 Sr  Sr8  1  0.13789  0.32827  0.49799  1
 Sr  Sr9  1  0.86211  0.19038  0.00201  1
 Sr  Sr10  1  0.86211  0.67173  0.50201  1
 V  V1  1  0.44891  0.36023  0.92621  1
 V  V2  1  0.55109  0.63977  0.07379  1
 V  V3  1  0.44891  0.08869  0.42621  1
 V  V4  1  0.55109  0.91131  0.57379  1
