CIF file written using JARVIS-Tools package.
data_LiErS2O8
_symmetry_space_group_name_H-M  'P-4n2'
_cell_length_a       7.44397
_cell_length_b       7.44397
_cell_length_c       5.79616
_cell_angle_alpha    90
_cell_angle_beta     90
_cell_angle_gamma    90

_symmetry_Int_Tables_number  118
_chemical_formula_structural  LiErS2O8
_chemical_formula_sum  Li2Er2S4O6
_cell_volume  321.180763963977
_cell_formula_units_Z  2
loop_
  _symmetry_equiv_pos_site_id
 _symmetry_equiv_pos_as_xyz
 1  'x, y, z'
loop_
 _atom_site_type_symbol
 _atom_site_label
 _atom_site_symmetry_multiplicity
 _atom_site_fract_x
 _atom_site_fract_y
 _atom_site_fract_z
 _atom_site_fract_occupancy
 Er  Er1  1  0.00000  0.50000  0.25000  1
 Er  Er2  1  0.50000  0.00000  0.75000  1
 Li  Li1  1  0.00000  0.50000  0.75000  1
 Li  Li2  1  0.50000  0.00000  0.25000  1
 O  O1  1  0.91489  0.68667  0.56625  1
 O  O2  1  0.08511  0.31333  0.56625  1
 O  O3  1  0.58511  0.18667  0.06625  1
 O  O4  1  0.20980  0.09304  0.84839  1
 O  O5  1  0.68667  0.08511  0.43375  1
 O  O6  1  0.31333  0.91489  0.43375  1
 O  O7  1  0.41489  0.81333  0.06625  1
 O  O8  1  0.18667  0.41489  0.93375  1
 O  O9  1  0.59304  0.70980  0.65161  1
 O  O10  1  0.90696  0.20980  0.15161  1
 O  O11  1  0.81333  0.58511  0.93375  1
 O  O12  1  0.09304  0.79020  0.15161  1
 O  O13  1  0.29020  0.59304  0.34839  1
 O  O14  1  0.70980  0.40696  0.34839  1
 O  O15  1  0.40696  0.29020  0.65161  1
 O  O16  1  0.79020  0.90696  0.84839  1
 S  S1  1  0.27571  0.77571  0.25000  1
 S  S2  1  0.72429  0.22429  0.25000  1
 S  S3  1  0.22429  0.27571  0.75000  1
 S  S4  1  0.77571  0.72429  0.75000  1
