CIF file written using JARVIS-Tools package.
data_MgSi2SnO6
_symmetry_space_group_name_H-M  'C2/c'
_cell_length_a       7.24878
_cell_length_b       7.24878
_cell_length_c       5.49449
_cell_angle_alpha    75.8861
_cell_angle_beta     75.8861
_cell_angle_gamma    84.0134

_symmetry_Int_Tables_number  15
_chemical_formula_structural  MgSi2SnO6
_chemical_formula_sum  Mg2Si4Sn2O2
_cell_volume  271.2308830284153
_cell_formula_units_Z  2
loop_
  _symmetry_equiv_pos_site_id
 _symmetry_equiv_pos_as_xyz
 1  'x, y, z'
loop_
 _atom_site_type_symbol
 _atom_site_label
 _atom_site_symmetry_multiplicity
 _atom_site_fract_x
 _atom_site_fract_y
 _atom_site_fract_z
 _atom_site_fract_occupancy
 Mg  Mg1  1  0.70356  0.29644  0.25000  1
 Mg  Mg2  1  0.29644  0.70356  0.75000  1
 O  O1  1  0.71722  0.74021  0.54841  1
 O  O2  1  0.05221  0.66956  0.67261  1
 O  O3  1  0.28278  0.25979  0.45159  1
 O  O4  1  0.74021  0.71722  0.04841  1
 O  O5  1  0.25979  0.28278  0.95159  1
 O  O6  1  0.58801  0.22736  0.61967  1
 O  O7  1  0.22736  0.58801  0.11967  1
 O  O8  1  0.41199  0.77264  0.38033  1
 O  O9  1  0.66956  0.05221  0.17261  1
 O  O10  1  0.94779  0.33044  0.32739  1
 O  O11  1  0.77264  0.41199  0.88033  1
 O  O12  1  0.33044  0.94779  0.82739  1
 Si  Si1  1  0.17330  0.36418  0.21782  1
 Si  Si2  1  0.63582  0.82670  0.28218  1
 Si  Si3  1  0.36418  0.17330  0.71782  1
 Si  Si4  1  0.82670  0.63582  0.78218  1
 Sn  Sn1  1  0.14889  0.85111  0.25000  1
 Sn  Sn2  1  0.85111  0.14889  0.75000  1
