CIF file written using JARVIS-Tools package.
data_Lu3Mg2TiS8
_symmetry_space_group_name_H-M  'R-3m'
_cell_length_a       7.68267
_cell_length_b       7.58942
_cell_length_c       7.68253
_cell_angle_alpha    59.5925
_cell_angle_beta     60.0014
_cell_angle_gamma    59.5906

_symmetry_Int_Tables_number  166
_chemical_formula_structural  Lu3Mg2TiS8
_chemical_formula_sum  Lu3Mg2TiS8
_cell_volume  314.7789176246607
_cell_formula_units_Z  1
loop_
  _symmetry_equiv_pos_site_id
 _symmetry_equiv_pos_as_xyz
 1  'x, y, z'
loop_
 _atom_site_type_symbol
 _atom_site_label
 _atom_site_symmetry_multiplicity
 _atom_site_fract_x
 _atom_site_fract_y
 _atom_site_fract_z
 _atom_site_fract_occupancy
 Lu  Lu1  1  0.50000  0.50001  0.49999  1
 Lu  Lu2  1  0.50000  0.50000  0.00000  1
 Lu  Lu3  1  0.00000  0.50000  0.50000  1
 Mg  Mg1  1  0.87570  0.87292  0.87569  1
 Mg  Mg2  1  0.12430  0.12708  0.12431  1
 S  S1  1  0.73549  0.75869  0.73551  1
 S  S2  1  0.26452  0.24130  0.72969  1
 S  S3  1  0.25552  0.73340  0.25554  1
 S  S4  1  0.72968  0.24127  0.26452  1
 S  S5  1  0.74448  0.26660  0.74446  1
 S  S6  1  0.27032  0.75873  0.73547  1
 S  S7  1  0.26451  0.24130  0.26450  1
 S  S8  1  0.73548  0.75870  0.27031  1
 Ti  Ti1  1  0.50000  -0.00000  0.50000  1
