CIF file written using JARVIS-Tools package.
data_Ba2Cl
_symmetry_space_group_name_H-M  'P2/m'
_cell_length_a       4.17192
_cell_length_b       3.95679
_cell_length_c       8.693
_cell_angle_alpha    90
_cell_angle_beta     76.2761
_cell_angle_gamma    90

_symmetry_Int_Tables_number  10
_chemical_formula_structural  Ba2Cl
_chemical_formula_sum  Ba2Cl
_cell_volume  139.40211559346315
_cell_formula_units_Z  1
loop_
  _symmetry_equiv_pos_site_id
 _symmetry_equiv_pos_as_xyz
 1  'x, y, z'
loop_
 _atom_site_type_symbol
 _atom_site_label
 _atom_site_symmetry_multiplicity
 _atom_site_fract_x
 _atom_site_fract_y
 _atom_site_fract_z
 _atom_site_fract_occupancy
 Ba  Ba1  1  0.10697  0.00000  -0.14841  1
 Ba  Ba2  1  -0.17366  0.00000  0.41509  1
 Cl  Cl1  1  0.46669  0.00000  0.13333  1
