CIF file written using JARVIS-Tools package.
data_Mg2Cl
_symmetry_space_group_name_H-M  'Pm'
_cell_length_a       3.49093
_cell_length_b       3.48059
_cell_length_c       7.50664
_cell_angle_alpha    90
_cell_angle_beta     116.332
_cell_angle_gamma    90

_symmetry_Int_Tables_number  6
_chemical_formula_structural  Mg2Cl
_chemical_formula_sum  Mg2Cl
_cell_volume  81.74525277294013
_cell_formula_units_Z  1
loop_
  _symmetry_equiv_pos_site_id
 _symmetry_equiv_pos_as_xyz
 1  'x, y, z'
loop_
 _atom_site_type_symbol
 _atom_site_label
 _atom_site_symmetry_multiplicity
 _atom_site_fract_x
 _atom_site_fract_y
 _atom_site_fract_z
 _atom_site_fract_occupancy
 Cl  Cl1  1  0.58981  0.00000  0.09935  1
 Mg  Mg1  1  -0.17692  0.00000  -0.17561  1
 Mg  Mg2  1  -0.01289  0.00000  0.47626  1
