CIF file written using JARVIS-Tools package.
data_MgCl3
_symmetry_space_group_name_H-M  'P1'
_cell_length_a       5.57479
_cell_length_b       6.51416
_cell_length_c       5.83078
_cell_angle_alpha    84.6822
_cell_angle_beta     95.8051
_cell_angle_gamma    145.738

_symmetry_Int_Tables_number  1
_chemical_formula_structural  MgCl3
_chemical_formula_sum  MgCl3
_cell_volume  118.58118381250289
_cell_formula_units_Z  1
loop_
  _symmetry_equiv_pos_site_id
 _symmetry_equiv_pos_as_xyz
 1  'x, y, z'
loop_
 _atom_site_type_symbol
 _atom_site_label
 _atom_site_symmetry_multiplicity
 _atom_site_fract_x
 _atom_site_fract_y
 _atom_site_fract_z
 _atom_site_fract_occupancy
 Cl  Cl1  1  -0.12495  0.24922  0.00227  1
 Cl  Cl2  1  0.12494  0.76100  0.45668  1
 Cl  Cl3  1  0.61678  0.73352  0.48702  1
 Mg  Mg1  1  0.87336  0.24389  0.61130  1
