CIF file written using JARVIS-Tools package.
data_BaCl
_symmetry_space_group_name_H-M  'Cm'
_cell_length_a       6.59303
_cell_length_b       5.22045
_cell_length_c       5.23941
_cell_angle_alpha    60.1062
_cell_angle_beta     90.0456
_cell_angle_gamma    90.1055

_symmetry_Int_Tables_number  8
_chemical_formula_structural  BaCl
_chemical_formula_sum  Ba2Cl2
_cell_volume  156.3393970685356
_cell_formula_units_Z  2
loop_
  _symmetry_equiv_pos_site_id
 _symmetry_equiv_pos_as_xyz
 1  'x, y, z'
loop_
 _atom_site_type_symbol
 _atom_site_label
 _atom_site_symmetry_multiplicity
 _atom_site_fract_x
 _atom_site_fract_y
 _atom_site_fract_z
 _atom_site_fract_occupancy
 Ba  Ba1  1  0.09730  0.12919  0.81533  1
 Ba  Ba2  1  0.56982  0.79709  0.47966  1
 Cl  Cl1  1  0.05099  0.79643  0.48069  1
 Cl  Cl2  1  0.32181  0.46350  0.14730  1
