CIF file written using JARVIS-Tools package.
data_BaCl
_symmetry_space_group_name_H-M  'P2_1/m'
_cell_length_a       5.09301
_cell_length_b       5.07805
_cell_length_c       8.81994
_cell_angle_alpha    124.938
_cell_angle_beta     90.0336
_cell_angle_gamma    89.9817

_symmetry_Int_Tables_number  11
_chemical_formula_structural  BaCl
_chemical_formula_sum  Ba2Cl2
_cell_volume  186.9950030299987
_cell_formula_units_Z  2
loop_
  _symmetry_equiv_pos_site_id
 _symmetry_equiv_pos_as_xyz
 1  'x, y, z'
loop_
 _atom_site_type_symbol
 _atom_site_label
 _atom_site_symmetry_multiplicity
 _atom_site_fract_x
 _atom_site_fract_y
 _atom_site_fract_z
 _atom_site_fract_occupancy
 Ba  Ba1  1  0.93403  0.77385  -0.03930  1
 Ba  Ba2  1  0.43407  0.77889  0.46726  1
 Cl  Cl1  1  0.93400  0.52691  0.21482  1
 Cl  Cl2  1  0.43411  0.02582  0.21316  1
