CIF file written using JARVIS-Tools package.
data_Li2V3CoO8
_symmetry_space_group_name_H-M  'R3m'
_cell_length_a       5.75924
_cell_length_b       5.86779
_cell_length_c       9.9755
_cell_angle_alpha    106.46
_cell_angle_beta     90.0017
_cell_angle_gamma    60.6084

_symmetry_Int_Tables_number  160
_chemical_formula_structural  Li2V3CoO8
_chemical_formula_sum  Li4V6Co2O6
_cell_volume  277.75681815773385
_cell_formula_units_Z  2
loop_
  _symmetry_equiv_pos_site_id
 _symmetry_equiv_pos_as_xyz
 1  'x, y, z'
loop_
 _atom_site_type_symbol
 _atom_site_label
 _atom_site_symmetry_multiplicity
 _atom_site_fract_x
 _atom_site_fract_y
 _atom_site_fract_z
 _atom_site_fract_occupancy
 Co  Co1  1  0.18718  0.62567  0.93761  1
 Co  Co2  1  0.68716  0.62567  0.43761  1
 Li  Li1  1  0.32010  0.35984  0.55998  1
 Li  Li2  1  0.82008  0.35984  0.05998  1
 Li  Li3  1  0.74494  0.51006  0.75168  1
 Li  Li4  1  0.24499  0.51007  0.25167  1
 O  O1  1  0.12215  0.75573  0.62595  1
 O  O2  1  0.84244  0.78477  0.87574  1
 O  O3  1  0.39027  0.21946  0.86991  1
 O  O4  1  0.89026  0.21946  0.36991  1
 O  O5  1  0.65547  0.22377  0.62642  1
 O  O6  1  0.15545  0.22378  0.12642  1
 O  O7  1  0.62212  0.75572  0.12596  1
 O  O8  1  0.38812  0.22378  0.35906  1
 O  O9  1  0.62076  0.22376  0.12640  1
 O  O10  1  0.37277  0.78478  0.87574  1
 O  O11  1  0.10761  0.78478  0.14091  1
 O  O12  1  0.60762  0.78478  0.64091  1
 O  O13  1  0.88813  0.22377  0.85906  1
 O  O14  1  0.12077  0.22377  0.62640  1
 O  O15  1  0.87277  0.78478  0.37574  1
 O  O16  1  0.34243  0.78478  0.37574  1
 V  V1  1  0.99931  0.00120  0.51041  1
 V  V2  1  0.76479  0.00117  0.74513  1
 V  V3  1  0.26475  0.00121  0.24514  1
 V  V4  1  0.73412  0.00118  0.24505  1
 V  V5  1  0.49931  0.00120  0.01041  1
 V  V6  1  0.23412  0.00122  0.74505  1
