CIF file written using JARVIS-Tools package.
data_BaF3
_symmetry_space_group_name_H-M  'P-1'
_cell_length_a       4.60119
_cell_length_b       4.18766
_cell_length_c       6.02088
_cell_angle_alpha    47.812
_cell_angle_beta     134.849
_cell_angle_gamma    122.145

_symmetry_Int_Tables_number  2
_chemical_formula_structural  BaF3
_chemical_formula_sum  BaF3
_cell_volume  60.562941717682
_cell_formula_units_Z  1
loop_
  _symmetry_equiv_pos_site_id
 _symmetry_equiv_pos_as_xyz
 1  'x, y, z'
loop_
 _atom_site_type_symbol
 _atom_site_label
 _atom_site_symmetry_multiplicity
 _atom_site_fract_x
 _atom_site_fract_y
 _atom_site_fract_z
 _atom_site_fract_occupancy
 Ba  Ba1  1  0.62427  0.50014  0.75051  1
 F  F1  1  0.16594  0.04168  0.02312  1
 F  F2  1  0.62419  0.50009  0.25051  1
 F  F3  1  0.08249  -0.04148  0.47785  1
