CIF file written using JARVIS-Tools package.
data_MgTiO3
_symmetry_space_group_name_H-M  'Cm'
_cell_length_a       3.75596
_cell_length_b       3.75596
_cell_length_c       4.95693
_cell_angle_alpha    101.41
_cell_angle_beta     101.41
_cell_angle_gamma    90.6571

_symmetry_Int_Tables_number  8
_chemical_formula_structural  MgTiO3
_chemical_formula_sum  MgTiO3
_cell_volume  67.09848897036557
_cell_formula_units_Z  1
loop_
  _symmetry_equiv_pos_site_id
 _symmetry_equiv_pos_as_xyz
 1  'x, y, z'
loop_
 _atom_site_type_symbol
 _atom_site_label
 _atom_site_symmetry_multiplicity
 _atom_site_fract_x
 _atom_site_fract_y
 _atom_site_fract_z
 _atom_site_fract_occupancy
 Mg  Mg1  1  0.44290  0.44290  0.71823  1
 O  O1  1  0.49583  -0.01407  0.88850  1
 O  O2  1  -0.01407  0.49583  0.88850  1
 O  O3  1  0.15503  0.15503  0.37459  1
 Ti  Ti1  1  0.03368  0.03368  0.01682  1
