CIF file written using JARVIS-Tools package.
data_Co2OF3
_symmetry_space_group_name_H-M  'Cmcm'
_cell_length_a       4.61746
_cell_length_b       4.61744
_cell_length_c       6.02824
_cell_angle_alpha    90.0014
_cell_angle_beta     90.0013
_cell_angle_gamma    93.2145

_symmetry_Int_Tables_number  63
_chemical_formula_structural  Co2OF3
_chemical_formula_sum  Co4O2F6
_cell_volume  128.32482070862102
_cell_formula_units_Z  2
loop_
  _symmetry_equiv_pos_site_id
 _symmetry_equiv_pos_as_xyz
 1  'x, y, z'
loop_
 _atom_site_type_symbol
 _atom_site_label
 _atom_site_symmetry_multiplicity
 _atom_site_fract_x
 _atom_site_fract_y
 _atom_site_fract_z
 _atom_site_fract_occupancy
 Co  Co1  1  0.96129  0.96129  -0.00001  1
 Co  Co2  1  0.03871  0.03871  0.50001  1
 Co  Co3  1  0.50000  0.50000  0.25000  1
 Co  Co4  1  0.50000  0.50000  0.75000  1
 F  F1  1  0.27835  0.27836  0.00001  1
 F  F2  1  0.72165  0.72164  0.49999  1
 F  F3  1  0.20357  0.79643  0.25000  1
 F  F4  1  0.20358  0.79642  0.75000  1
 F  F5  1  0.79643  0.20357  0.25000  1
 F  F6  1  0.79642  0.20358  0.75000  1
 O  O1  1  0.32656  0.32655  0.50001  1
 O  O2  1  0.67344  0.67345  -0.00001  1
