CIF file written using JARVIS-Tools package.
data_Li8CoO5F
_symmetry_space_group_name_H-M  'P1'
_cell_length_a       5.26961
_cell_length_b       5.72367
_cell_length_c       8.50952
_cell_angle_alpha    82.7597
_cell_angle_beta     83.8029
_cell_angle_gamma    90.9995

_symmetry_Int_Tables_number  1
_chemical_formula_structural  Li8CoO5F
_chemical_formula_sum  Li6Co2O0F2
_cell_volume  253.00077510604413
_cell_formula_units_Z  2
loop_
  _symmetry_equiv_pos_site_id
 _symmetry_equiv_pos_as_xyz
 1  'x, y, z'
loop_
 _atom_site_type_symbol
 _atom_site_label
 _atom_site_symmetry_multiplicity
 _atom_site_fract_x
 _atom_site_fract_y
 _atom_site_fract_z
 _atom_site_fract_occupancy
 Co  Co1  1  0.48708  0.49959  0.47493  1
 Co  Co2  1  0.98712  -0.00039  0.97494  1
 F  F1  1  0.17095  0.00149  0.27309  1
 F  F2  1  0.67100  0.50155  0.77309  1
 Li  Li1  1  0.00582  0.65198  0.35956  1
 Li  Li2  1  0.16701  0.59933  0.06248  1
 Li  Li3  1  0.66697  0.09935  0.56252  1
 Li  Li4  1  0.68347  0.44231  0.20498  1
 Li  Li5  1  0.18349  0.94235  0.70502  1
 Li  Li6  1  0.34566  0.23478  0.12087  1
 Li  Li7  1  0.64193  0.77550  0.88136  1
 Li  Li8  1  0.50591  0.15198  0.85967  1
 Li  Li9  1  0.14188  0.27548  0.38136  1
 Li  Li10  1  0.34512  0.91435  0.44997  1
 Li  Li11  1  0.84517  0.41437  0.94995  1
 Li  Li12  1  0.84567  0.73481  0.62082  1
 Li  Li13  1  0.31091  0.55716  0.78545  1
 Li  Li14  1  0.01914  0.31849  0.66225  1
 Li  Li15  1  0.51914  0.81846  0.16228  1
 Li  Li16  1  0.81088  0.05717  0.28544  1
 O  O1  1  0.32996  0.19881  0.55755  1
 O  O2  1  0.79739  0.34585  0.40600  1
 O  O3  1  0.29743  0.84587  0.90601  1
 O  O4  1  0.19025  0.64798  0.58090  1
 O  O5  1  0.83345  0.01339  0.74778  1
 O  O6  1  0.67174  0.79891  0.43274  1
 O  O7  1  0.17180  0.29892  0.93278  1
 O  O8  1  0.33342  0.51335  0.24777  1
 O  O9  1  0.69025  0.14800  0.08089  1
 O  O10  1  0.82999  0.69882  0.05755  1
