CIF file written using JARVIS-Tools package.
data_Ca3SbI3
_symmetry_space_group_name_H-M  'I4_132'
_cell_length_a       10.991
_cell_length_b       10.991
_cell_length_c       10.991
_cell_angle_alpha    109.471
_cell_angle_beta     109.471
_cell_angle_gamma    109.471

_symmetry_Int_Tables_number  214
_chemical_formula_structural  Ca3SbI3
_chemical_formula_sum  Ca2Sb4I2
_cell_volume  1022.0913361151717
_cell_formula_units_Z  4
loop_
  _symmetry_equiv_pos_site_id
 _symmetry_equiv_pos_as_xyz
 1  'x, y, z'
loop_
 _atom_site_type_symbol
 _atom_site_label
 _atom_site_symmetry_multiplicity
 _atom_site_fract_x
 _atom_site_fract_y
 _atom_site_fract_z
 _atom_site_fract_occupancy
 Ca  Ca1  1  0.48453  0.49226  0.24226  1
 Ca  Ca2  1  0.24226  0.25774  0.75000  1
 Ca  Ca3  1  0.25774  0.00774  0.01547  1
 Ca  Ca4  1  0.49226  0.24226  0.48453  1
 Ca  Ca5  1  0.49226  0.75000  0.00774  1
 Ca  Ca6  1  0.00774  0.01547  0.25774  1
 Ca  Ca7  1  0.00774  0.49226  0.75000  1
 Ca  Ca8  1  0.25774  0.75000  0.24226  1
 Ca  Ca9  1  0.24226  0.48453  0.49226  1
 Ca  Ca10  1  0.75000  0.00774  0.49226  1
 Ca  Ca11  1  0.75000  0.24226  0.25774  1
 Ca  Ca12  1  0.01547  0.25774  0.00774  1
 I  I1  1  0.99615  0.99229  0.74615  1
 I  I2  1  0.74615  0.99615  0.99229  1
 I  I3  1  0.75385  0.74615  0.25000  1
 I  I4  1  0.50385  0.25000  0.99615  1
 I  I5  1  0.75385  0.50771  0.50385  1
 I  I6  1  0.25000  0.99615  0.50385  1
 I  I7  1  0.74615  0.25000  0.75385  1
 I  I8  1  0.50385  0.75385  0.50771  1
 I  I9  1  0.50771  0.50385  0.75385  1
 I  I10  1  0.25000  0.75385  0.74615  1
 I  I11  1  0.99615  0.50385  0.25000  1
 I  I12  1  0.99229  0.74615  0.99615  1
 Sb  Sb1  1  0.25000  0.25000  0.25000  1
 Sb  Sb2  1  0.50000  0.00000  0.25000  1
 Sb  Sb3  1  0.25000  0.50000  -0.00000  1
 Sb  Sb4  1  -0.00000  0.25000  0.50000  1
