CIF file written using JARVIS-Tools package.
data_Ca3Ga3Ge3O14
_symmetry_space_group_name_H-M  'P321'
_cell_length_a       8.16544
_cell_length_b       8.16544
_cell_length_c       5.03404
_cell_angle_alpha    90
_cell_angle_beta     90
_cell_angle_gamma    120

_symmetry_Int_Tables_number  150
_chemical_formula_structural  Ca3Ga3Ge3O14
_chemical_formula_sum  Ca3Ga3Ge3O4
_cell_volume  290.67394359059773
_cell_formula_units_Z  1
loop_
  _symmetry_equiv_pos_site_id
 _symmetry_equiv_pos_as_xyz
 1  'x, y, z'
loop_
 _atom_site_type_symbol
 _atom_site_label
 _atom_site_symmetry_multiplicity
 _atom_site_fract_x
 _atom_site_fract_y
 _atom_site_fract_z
 _atom_site_fract_occupancy
 Ca  Ca1  1  0.57929  0.00000  0.00000  1
 Ca  Ca2  1  0.00000  0.57929  0.00000  1
 Ca  Ca3  1  0.42071  0.42071  0.00000  1
 Ga  Ga1  1  0.24086  -0.00000  0.50000  1
 Ga  Ga2  1  -0.00000  0.24086  0.50000  1
 Ga  Ga3  1  0.75914  0.75914  0.50000  1
 Ge  Ge1  1  0.33333  0.66667  0.54268  1
 Ge  Ge2  1  0.66667  0.33333  0.45732  1
 Ge  Ge3  1  0.00000  0.00000  0.00000  1
 O  O1  1  0.46354  0.14571  0.29960  1
 O  O2  1  0.85429  0.31783  0.29960  1
 O  O3  1  0.33333  0.66667  0.19711  1
 O  O4  1  0.68217  0.53646  0.29960  1
 O  O5  1  0.31783  0.85429  0.70040  1
 O  O6  1  0.14571  0.46354  0.70040  1
 O  O7  1  0.07534  0.86036  0.23043  1
 O  O8  1  0.78502  0.92466  0.23043  1
 O  O9  1  0.21498  0.13964  0.76957  1
 O  O10  1  0.53646  0.68217  0.70040  1
 O  O11  1  0.92466  0.78502  0.76957  1
 O  O12  1  0.86036  0.07534  0.76957  1
 O  O13  1  0.13964  0.21498  0.23043  1
 O  O14  1  0.66667  0.33333  0.80289  1
