CIF file written using JARVIS-Tools package.
data_BaMoP2O8
_symmetry_space_group_name_H-M  'C2/m'
_cell_length_a       4.93503
_cell_length_b       4.93501
_cell_length_c       7.82777
_cell_angle_alpha    86.0632
_cell_angle_beta     86.0628
_cell_angle_gamma    65.2379

_symmetry_Int_Tables_number  12
_chemical_formula_structural  BaMoP2O8
_chemical_formula_sum  BaMoP2O8
_cell_volume  172.53613142772045
_cell_formula_units_Z  1
loop_
  _symmetry_equiv_pos_site_id
 _symmetry_equiv_pos_as_xyz
 1  'x, y, z'
loop_
 _atom_site_type_symbol
 _atom_site_label
 _atom_site_symmetry_multiplicity
 _atom_site_fract_x
 _atom_site_fract_y
 _atom_site_fract_z
 _atom_site_fract_occupancy
 Ba  Ba1  1  0.00000  0.00000  0.00000  1
 Mo  Mo1  1  0.00000  -0.00000  0.50000  1
 O  O1  1  0.76215  0.28551  0.68745  1
 O  O2  1  0.68622  0.68616  0.89010  1
 O  O3  1  0.23785  0.71449  0.31255  1
 O  O4  1  0.23544  0.23547  0.43835  1
 O  O5  1  0.76456  0.76453  0.56165  1
 O  O6  1  0.71451  0.23775  0.31252  1
 O  O7  1  0.31378  0.31384  0.10990  1
 O  O8  1  0.28549  0.76225  0.68748  1
 P  P1  1  0.36988  0.36988  0.29010  1
 P  P2  1  0.63012  0.63012  0.70990  1
