CIF file written using JARVIS-Tools package.
data_Cr4AgBiO14
_symmetry_space_group_name_H-M  'I4'
_cell_length_a       7.30157
_cell_length_b       7.30157
_cell_length_c       7.30157
_cell_angle_alpha    107.735
_cell_angle_beta     107.735
_cell_angle_gamma    113.002

_symmetry_Int_Tables_number  79
_chemical_formula_structural  Cr4AgBiO14
_chemical_formula_sum  Cr4AgBiO4
_cell_volume  298.7995721058737
_cell_formula_units_Z  1
loop_
  _symmetry_equiv_pos_site_id
 _symmetry_equiv_pos_as_xyz
 1  'x, y, z'
loop_
 _atom_site_type_symbol
 _atom_site_label
 _atom_site_symmetry_multiplicity
 _atom_site_fract_x
 _atom_site_fract_y
 _atom_site_fract_z
 _atom_site_fract_occupancy
 Ag  Ag1  1  0.43239  0.43239  0.00000  1
 Bi  Bi1  1  0.00863  0.00863  0.00000  1
 Cr  Cr1  1  0.82854  0.36887  0.78318  1
 Cr  Cr2  1  0.04536  0.82854  0.45967  1
 Cr  Cr3  1  0.36887  0.58569  0.54033  1
 Cr  Cr4  1  0.58569  0.04536  0.21682  1
 O  O1  1  0.22776  0.72776  0.50000  1
 O  O2  1  0.72776  0.22776  0.50000  1
 O  O3  1  0.96990  0.64435  0.87142  1
 O  O4  1  0.09501  0.00056  0.70117  1
 O  O5  1  0.64435  0.77293  0.67445  1
 O  O6  1  0.09848  0.96990  0.32555  1
 O  O7  1  0.78471  0.61642  0.31951  1
 O  O8  1  0.29691  0.46520  0.68049  1
 O  O9  1  0.77293  0.09848  0.12858  1
 O  O10  1  0.61642  0.29691  0.83171  1
 O  O11  1  0.39384  0.09501  0.09445  1
 O  O12  1  0.29939  0.39384  0.29883  1
 O  O13  1  0.46520  0.78471  0.16829  1
 O  O14  1  0.00056  0.29939  0.90555  1
