CIF file written using JARVIS-Tools package.
data_BaNdCuTe3
_symmetry_space_group_name_H-M  'Cmcm'
_cell_length_a       7.79734
_cell_length_b       7.79734
_cell_length_c       11.6696
_cell_angle_alpha    90
_cell_angle_beta     90
_cell_angle_gamma    146.482

_symmetry_Int_Tables_number  63
_chemical_formula_structural  BaNdCuTe3
_chemical_formula_sum  Ba2Nd2Cu2Te6
_cell_volume  391.7795370143798
_cell_formula_units_Z  2
loop_
  _symmetry_equiv_pos_site_id
 _symmetry_equiv_pos_as_xyz
 1  'x, y, z'
loop_
 _atom_site_type_symbol
 _atom_site_label
 _atom_site_symmetry_multiplicity
 _atom_site_fract_x
 _atom_site_fract_y
 _atom_site_fract_z
 _atom_site_fract_occupancy
 Ba  Ba1  1  0.25099  0.74901  0.25000  1
 Ba  Ba2  1  0.74901  0.25099  0.75000  1
 Cu  Cu1  1  0.53335  0.46665  0.25000  1
 Cu  Cu2  1  0.46665  0.53335  0.75000  1
 Nd  Nd1  1  0.00000  0.00000  0.00000  1
 Nd  Nd2  1  0.00000  0.00000  0.50000  1
 Te  Te1  1  0.64094  0.35906  0.06560  1
 Te  Te2  1  0.35906  0.64094  0.93440  1
 Te  Te3  1  0.35906  0.64094  0.56560  1
 Te  Te4  1  0.64094  0.35906  0.43440  1
 Te  Te5  1  0.92813  0.07187  0.25000  1
 Te  Te6  1  0.07187  0.92813  0.75000  1
