CIF file written using JARVIS-Tools package.
data_Li2TiCo3O8
_symmetry_space_group_name_H-M  'P6_3mc'
_cell_length_a       5.68941
_cell_length_b       5.68942
_cell_length_c       9.20573
_cell_angle_alpha    89.9997
_cell_angle_beta     90.0013
_cell_angle_gamma    60.0003

_symmetry_Int_Tables_number  186
_chemical_formula_structural  Li2TiCo3O8
_chemical_formula_sum  Li4Ti2Co6O6
_cell_volume  258.0630639957175
_cell_formula_units_Z  2
loop_
  _symmetry_equiv_pos_site_id
 _symmetry_equiv_pos_as_xyz
 1  'x, y, z'
loop_
 _atom_site_type_symbol
 _atom_site_label
 _atom_site_symmetry_multiplicity
 _atom_site_fract_x
 _atom_site_fract_y
 _atom_site_fract_z
 _atom_site_fract_occupancy
 Co  Co1  1  0.83013  0.33978  0.21502  1
 Co  Co2  1  0.16985  0.16990  0.71501  1
 Co  Co3  1  0.33978  0.83012  0.21501  1
 Co  Co4  1  0.16986  0.66024  0.71501  1
 Co  Co5  1  0.66021  0.16990  0.71502  1
 Co  Co6  1  0.83013  0.83011  0.21501  1
 Li  Li1  1  0.66667  0.66668  0.89312  1
 Li  Li2  1  0.99990  0.00005  0.49801  1
 Li  Li3  1  0.00003  0.00001  0.99801  1
 Li  Li4  1  0.33331  0.33334  0.39312  1
 O  O1  1  0.32896  0.83552  0.59988  1
 O  O2  1  0.16453  0.67098  0.09990  1
 O  O3  1  0.51838  0.51837  0.33526  1
 O  O4  1  0.48161  0.48163  0.83526  1
 O  O5  1  0.66667  0.66667  0.10948  1
 O  O6  1  0.33331  0.33335  0.60947  1
 O  O7  1  0.16452  0.16453  0.09991  1
 O  O8  1  -0.00001  0.00000  0.80733  1
 O  O9  1  0.48160  0.03676  0.83527  1
 O  O10  1  0.51839  0.96325  0.33526  1
 O  O11  1  0.03675  0.48162  0.83527  1
 O  O12  1  0.96324  0.51839  0.33527  1
 O  O13  1  0.00001  0.00000  0.30733  1
 O  O14  1  0.83545  0.32905  0.59990  1
 O  O15  1  0.67100  0.16450  0.09989  1
 O  O16  1  0.83545  0.83550  0.59990  1
 Ti  Ti1  1  0.33336  0.33334  0.99545  1
 Ti  Ti2  1  0.66661  0.66670  0.49545  1
