CIF file written using JARVIS-Tools package.
data_BaNa3P2O8
_symmetry_space_group_name_H-M  'P-3m1'
_cell_length_a       5.56353
_cell_length_b       5.56353
_cell_length_c       7.0534
_cell_angle_alpha    90
_cell_angle_beta     90
_cell_angle_gamma    120

_symmetry_Int_Tables_number  164
_chemical_formula_structural  BaNa3P2O8
_chemical_formula_sum  BaNa3P2O8
_cell_volume  189.07338142800535
_cell_formula_units_Z  1
loop_
  _symmetry_equiv_pos_site_id
 _symmetry_equiv_pos_as_xyz
 1  'x, y, z'
loop_
 _atom_site_type_symbol
 _atom_site_label
 _atom_site_symmetry_multiplicity
 _atom_site_fract_x
 _atom_site_fract_y
 _atom_site_fract_z
 _atom_site_fract_occupancy
 Ba  Ba1  1  0.00000  0.00000  0.00000  1
 Na  Na1  1  0.33333  0.66667  0.66800  1
 Na  Na2  1  0.66667  0.33333  0.33200  1
 Na  Na3  1  0.00000  0.00000  0.50000  1
 O  O1  1  0.33333  0.66667  0.00190  1
 O  O2  1  0.66667  0.33333  0.99810  1
 O  O3  1  0.18314  0.81686  0.29973  1
 O  O4  1  0.81686  0.18314  0.70027  1
 O  O5  1  0.18314  0.36628  0.29973  1
 O  O6  1  0.81686  0.63372  0.70027  1
 O  O7  1  0.63372  0.81686  0.29973  1
 O  O8  1  0.36628  0.18314  0.70027  1
 P  P1  1  0.33333  0.66667  0.22141  1
 P  P2  1  0.66667  0.33333  0.77859  1
