CIF file written using JARVIS-Tools package.
data_BaMoP2O8
_symmetry_space_group_name_H-M  'C2/m'
_cell_length_a       4.93472
_cell_length_b       4.93471
_cell_length_c       7.82773
_cell_angle_alpha    86.0553
_cell_angle_beta     86.0553
_cell_angle_gamma    65.2478

_symmetry_Int_Tables_number  12
_chemical_formula_structural  BaMoP2O8
_chemical_formula_sum  BaMoP2O8
_cell_volume  172.52507260915652
_cell_formula_units_Z  1
loop_
  _symmetry_equiv_pos_site_id
 _symmetry_equiv_pos_as_xyz
 1  'x, y, z'
loop_
 _atom_site_type_symbol
 _atom_site_label
 _atom_site_symmetry_multiplicity
 _atom_site_fract_x
 _atom_site_fract_y
 _atom_site_fract_z
 _atom_site_fract_occupancy
 Ba  Ba1  1  0.00000  0.00000  0.00000  1
 Mo  Mo1  1  -0.00000  -0.00000  0.50000  1
 O  O1  1  0.28546  0.76215  0.68747  1
 O  O2  1  0.68619  0.68619  0.89006  1
 O  O3  1  0.71454  0.23785  0.31253  1
 O  O4  1  0.23550  0.23550  0.43842  1
 O  O5  1  0.76450  0.76450  0.56158  1
 O  O6  1  0.23785  0.71454  0.31253  1
 O  O7  1  0.31381  0.31381  0.10994  1
 O  O8  1  0.76215  0.28546  0.68747  1
 P  P1  1  0.36992  0.36992  0.29012  1
 P  P2  1  0.63008  0.63008  0.70988  1
