CIF file written using JARVIS-Tools package.
data_Li3CrP2O8
_symmetry_space_group_name_H-M  'C2/c'
_cell_length_a       5.11456
_cell_length_b       5.11456
_cell_length_c       12.9854
_cell_angle_alpha    82.3638
_cell_angle_beta     82.3638
_cell_angle_gamma    54.4096

_symmetry_Int_Tables_number  15
_chemical_formula_structural  Li3CrP2O8
_chemical_formula_sum  Li6Cr2P4O6
_cell_volume  273.1285432154438
_cell_formula_units_Z  2
loop_
  _symmetry_equiv_pos_site_id
 _symmetry_equiv_pos_as_xyz
 1  'x, y, z'
loop_
 _atom_site_type_symbol
 _atom_site_label
 _atom_site_symmetry_multiplicity
 _atom_site_fract_x
 _atom_site_fract_y
 _atom_site_fract_z
 _atom_site_fract_occupancy
 Cr  Cr1  1  0.00000  0.00000  0.00000  1
 Cr  Cr2  1  0.00000  0.00000  0.50000  1
 Li  Li1  1  0.63093  0.70276  0.34881  1
 Li  Li2  1  0.05500  0.94500  0.75000  1
 Li  Li3  1  0.94500  0.05500  0.25000  1
 Li  Li4  1  0.70276  0.63093  0.84881  1
 Li  Li5  1  0.29724  0.36907  0.15119  1
 Li  Li6  1  0.36907  0.29724  0.65119  1
 O  O1  1  0.73395  0.17564  0.86930  1
 O  O2  1  0.45153  0.77667  0.52486  1
 O  O3  1  0.82436  0.26605  0.63070  1
 O  O4  1  0.50118  0.81783  0.71148  1
 O  O5  1  0.26605  0.82436  0.13070  1
 O  O6  1  0.54847  0.22333  0.47514  1
 O  O7  1  0.02779  0.33746  0.41626  1
 O  O8  1  0.77667  0.45153  0.02486  1
 O  O9  1  0.81783  0.50118  0.21148  1
 O  O10  1  0.97221  0.66254  0.58374  1
 O  O11  1  0.66254  0.97221  0.08374  1
 O  O12  1  0.49882  0.18217  0.28852  1
 O  O13  1  0.17564  0.73395  0.36930  1
 O  O14  1  0.18217  0.49882  0.78852  1
 O  O15  1  0.33746  0.02779  0.91626  1
 O  O16  1  0.22333  0.54847  0.97514  1
 P  P1  1  0.68203  0.63678  0.61265  1
 P  P2  1  0.31797  0.36322  0.38735  1
 P  P3  1  0.63678  0.68203  0.11265  1
 P  P4  1  0.36322  0.31797  0.88735  1
