CIF file written using JARVIS-Tools package.
data_AuXeF9
_symmetry_space_group_name_H-M  'I4/m'
_cell_length_a       11.0322
_cell_length_b       11.0322
_cell_length_c       11.0322
_cell_angle_alpha    150.242
_cell_angle_beta     150.242
_cell_angle_gamma    42.5862

_symmetry_Int_Tables_number  87
_chemical_formula_structural  AuXeF9
_chemical_formula_sum  Au2Xe2F8
_cell_volume  329.95208548610475
_cell_formula_units_Z  2
loop_
  _symmetry_equiv_pos_site_id
 _symmetry_equiv_pos_as_xyz
 1  'x, y, z'
loop_
 _atom_site_type_symbol
 _atom_site_label
 _atom_site_symmetry_multiplicity
 _atom_site_fract_x
 _atom_site_fract_y
 _atom_site_fract_z
 _atom_site_fract_occupancy
 Au  Au1  1  0.50000  0.00000  0.50000  1
 Au  Au2  1  -0.00000  0.50000  0.50000  1
 F  F1  1  0.48607  0.32053  0.45914  1
 F  F2  1  0.51393  0.67947  0.54086  1
 F  F3  1  0.86139  0.02693  0.54086  1
 F  F4  1  0.32053  0.86139  0.83446  1
 F  F5  1  0.13861  0.97307  0.45914  1
 F  F6  1  0.67947  0.13861  0.16554  1
 F  F7  1  0.25130  0.25130  -0.00000  1
 F  F8  1  0.02693  0.48607  0.16554  1
 F  F9  1  0.21969  0.36927  0.45710  1
 F  F10  1  0.78031  0.63073  0.54290  1
 F  F11  1  0.91217  0.76259  0.54290  1
 F  F12  1  0.36927  0.91217  0.14958  1
 F  F13  1  0.08783  0.23741  0.45710  1
 F  F14  1  0.63073  0.08783  0.85042  1
 F  F15  1  0.76259  0.21969  0.85042  1
 F  F16  1  0.23741  0.78031  0.14958  1
 F  F17  1  0.97307  0.51393  0.83446  1
 F  F18  1  0.74870  0.74870  0.00000  1
 Xe  Xe1  1  0.84543  0.84543  -0.00000  1
 Xe  Xe2  1  0.15457  0.15457  0.00000  1
