CIF file written using JARVIS-Tools package.
data_Li2Mn3CrO8
_symmetry_space_group_name_H-M  'P6_3mc'
_cell_length_a       5.69619
_cell_length_b       5.69618
_cell_length_c       9.38272
_cell_angle_alpha    90
_cell_angle_beta     90
_cell_angle_gamma    120

_symmetry_Int_Tables_number  186
_chemical_formula_structural  Li2Mn3CrO8
_chemical_formula_sum  Li4Mn6Cr2O6
_cell_volume  263.65009135174085
_cell_formula_units_Z  2
loop_
  _symmetry_equiv_pos_site_id
 _symmetry_equiv_pos_as_xyz
 1  'x, y, z'
loop_
 _atom_site_type_symbol
 _atom_site_label
 _atom_site_symmetry_multiplicity
 _atom_site_fract_x
 _atom_site_fract_y
 _atom_site_fract_z
 _atom_site_fract_occupancy
 Cr  Cr1  1  0.66667  0.33333  0.98622  1
 Cr  Cr2  1  0.33333  0.66667  0.48622  1
 Li  Li1  1  0.33333  0.66667  0.89727  1
 Li  Li2  1  0.00000  0.00000  0.99661  1
 Li  Li3  1  0.00000  0.00000  0.49661  1
 Li  Li4  1  0.66667  0.33333  0.39727  1
 Mn  Mn1  1  0.16926  0.83074  0.21419  1
 Mn  Mn2  1  0.66147  0.83074  0.21419  1
 Mn  Mn3  1  0.83074  0.16926  0.71419  1
 Mn  Mn4  1  0.33853  0.16926  0.71419  1
 Mn  Mn5  1  0.83074  0.66147  0.71419  1
 Mn  Mn6  1  0.16926  0.33853  0.21419  1
 O  O1  1  0.16250  0.32500  0.59969  1
 O  O2  1  0.16250  0.83750  0.59969  1
 O  O3  1  0.96423  0.48211  0.83789  1
 O  O4  1  0.33333  0.66667  0.10669  1
 O  O5  1  0.00000  0.00000  0.31149  1
 O  O6  1  0.00000  0.00000  0.81149  1
 O  O7  1  0.03577  0.51789  0.33789  1
 O  O8  1  0.83750  0.67500  0.09969  1
 O  O9  1  0.67500  0.83750  0.59969  1
 O  O10  1  0.51789  0.48211  0.83789  1
 O  O11  1  0.51789  0.03577  0.83789  1
 O  O12  1  0.66667  0.33333  0.60669  1
 O  O13  1  0.48211  0.96423  0.33789  1
 O  O14  1  0.32500  0.16250  0.09969  1
 O  O15  1  0.48211  0.51789  0.33789  1
 O  O16  1  0.83750  0.16250  0.09969  1
