CIF file written using JARVIS-Tools package.
data_NaH3
_symmetry_space_group_name_H-M  'P1'
_cell_length_a       3.66189
_cell_length_b       3.65917
_cell_length_c       5.19606
_cell_angle_alpha    96.397
_cell_angle_beta     103.503
_cell_angle_gamma    62.7008

_symmetry_Int_Tables_number  1
_chemical_formula_structural  NaH3
_chemical_formula_sum  NaH3
_cell_volume  60.1590875014163
_cell_formula_units_Z  1
loop_
  _symmetry_equiv_pos_site_id
 _symmetry_equiv_pos_as_xyz
 1  'x, y, z'
loop_
 _atom_site_type_symbol
 _atom_site_label
 _atom_site_symmetry_multiplicity
 _atom_site_fract_x
 _atom_site_fract_y
 _atom_site_fract_z
 _atom_site_fract_occupancy
 H  H1  1  0.01518  0.02528  -0.06373  1
 H  H2  1  0.61495  0.41969  0.45463  1
 H  H3  1  0.19079  0.82798  -0.00240  1
 Na  Na1  1  0.95825  0.76116  0.45501  1
