CIF file written using JARVIS-Tools package.
data_Al12Fe7
_symmetry_space_group_name_H-M  'P-1'
_cell_length_a       4.7861
_cell_length_b       6.34939
_cell_length_c       8.72695
_cell_angle_alpha    87.7899
_cell_angle_beta     74.5724
_cell_angle_gamma    83.3429

_symmetry_Int_Tables_number  2
_chemical_formula_structural  Al12Fe7
_chemical_formula_sum  Al2Fe7
_cell_volume  253.914126842518
_cell_formula_units_Z  1
loop_
  _symmetry_equiv_pos_site_id
 _symmetry_equiv_pos_as_xyz
 1  'x, y, z'
loop_
 _atom_site_type_symbol
 _atom_site_label
 _atom_site_symmetry_multiplicity
 _atom_site_fract_x
 _atom_site_fract_y
 _atom_site_fract_z
 _atom_site_fract_occupancy
 Al  Al1  1  0.41233  0.46035  0.30225  1
 Al  Al2  1  0.39803  0.81346  0.48558  1
 Al  Al3  1  0.58767  0.53965  0.69775  1
 Al  Al4  1  0.96121  0.86971  0.29253  1
 Al  Al5  1  0.60197  0.18654  0.51442  1
 Al  Al6  1  0.99017  0.70524  0.82511  1
 Al  Al7  1  0.03879  0.13029  0.70747  1
 Al  Al8  1  0.68797  0.33621  0.96835  1
 Al  Al9  1  0.00983  0.29476  0.17489  1
 Al  Al10  1  0.49307  0.00755  0.16840  1
 Al  Al11  1  0.50693  0.99245  0.83160  1
 Al  Al12  1  0.31203  0.66379  0.03165  1
 Fe  Fe1  1  0.00000  0.00000  0.00000  1
 Fe  Fe2  1  0.16383  0.47904  0.58466  1
 Fe  Fe3  1  0.22513  0.35080  0.88370  1
 Fe  Fe4  1  0.77487  0.64920  0.11630  1
 Fe  Fe5  1  0.14471  0.15382  0.41488  1
 Fe  Fe6  1  0.85529  0.84618  0.58512  1
 Fe  Fe7  1  0.83617  0.52096  0.41534  1
