CIF file written using JARVIS-Tools package.
data_BaZnTe
_symmetry_space_group_name_H-M  'Amm2'
_cell_length_a       4.89971
_cell_length_b       6.54294
_cell_length_c       5.11739
_cell_angle_alpha    90
_cell_angle_beta     90
_cell_angle_gamma    111.974

_symmetry_Int_Tables_number  38
_chemical_formula_structural  BaZnTe
_chemical_formula_sum  BaZnTe
_cell_volume  152.13737397735775
_cell_formula_units_Z  1
loop_
  _symmetry_equiv_pos_site_id
 _symmetry_equiv_pos_as_xyz
 1  'x, y, z'
loop_
 _atom_site_type_symbol
 _atom_site_label
 _atom_site_symmetry_multiplicity
 _atom_site_fract_x
 _atom_site_fract_y
 _atom_site_fract_z
 _atom_site_fract_occupancy
 Ba  Ba1  1  -0.21852  -0.22295  0.00000  1
 Te  Te1  1  0.47863  0.17134  0.00000  1
 Zn  Zn1  1  0.10584  0.42565  0.00000  1
