CIF file written using JARVIS-Tools package.
data_ZrTi4Pb5O15
_symmetry_space_group_name_H-M  'Cmm2'
_cell_length_a       14.2429
_cell_length_b       14.2429
_cell_length_c       4.28869
_cell_angle_alpha    90
_cell_angle_beta     90
_cell_angle_gamma    157.39

_symmetry_Int_Tables_number  35
_chemical_formula_structural  ZrTi4Pb5O15
_chemical_formula_sum  ZrTi4Pb5O5
_cell_volume  334.4757716792693
_cell_formula_units_Z  1
loop_
  _symmetry_equiv_pos_site_id
 _symmetry_equiv_pos_as_xyz
 1  'x, y, z'
loop_
 _atom_site_type_symbol
 _atom_site_label
 _atom_site_symmetry_multiplicity
 _atom_site_fract_x
 _atom_site_fract_y
 _atom_site_fract_z
 _atom_site_fract_occupancy
 O  O1  1  0.70037  0.29963  0.12218  1
 O  O2  1  0.40334  0.10024  0.62422  1
 O  O3  1  0.59666  0.89976  0.62422  1
 O  O4  1  0.10316  0.89684  0.12086  1
 O  O5  1  0.81277  0.70697  0.62064  1
 O  O6  1  0.18723  0.29303  0.62064  1
 O  O7  1  0.50000  0.00000  0.62141  1
 O  O8  1  -0.00000  0.50000  0.62141  1
 O  O9  1  0.10024  0.40334  0.62422  1
 O  O10  1  0.89976  0.59666  0.62422  1
 O  O11  1  0.29303  0.18723  0.62064  1
 O  O12  1  0.70697  0.81277  0.62064  1
 O  O13  1  0.50000  0.50000  0.08170  1
 O  O14  1  0.29963  0.70037  0.12218  1
 O  O15  1  0.89684  0.10316  0.12086  1
 Pb  Pb1  1  0.20043  0.79957  0.99694  1
 Pb  Pb2  1  0.79957  0.20043  0.99694  1
 Pb  Pb3  1  0.39699  0.60301  0.99557  1
 Pb  Pb4  1  0.00000  0.00000  0.99289  1
 Pb  Pb5  1  0.60301  0.39699  0.99557  1
 Ti  Ti1  1  0.70096  0.29904  0.53735  1
 Ti  Ti2  1  0.29904  0.70096  0.53735  1
 Ti  Ti3  1  0.89750  0.10250  0.53567  1
 Ti  Ti4  1  0.10250  0.89750  0.53567  1
 Zr  Zr1  1  0.50000  0.50000  0.54754  1
