CIF file written using JARVIS-Tools package.
data_BaZrTe
_symmetry_space_group_name_H-M  'Amm2'
_cell_length_a       7.79283
_cell_length_b       4.07757
_cell_length_c       3.64464
_cell_angle_alpha    90
_cell_angle_beta     90
_cell_angle_gamma    105.142

_symmetry_Int_Tables_number  38
_chemical_formula_structural  BaZrTe
_chemical_formula_sum  BaZrTe
_cell_volume  111.79068348087203
_cell_formula_units_Z  1
loop_
  _symmetry_equiv_pos_site_id
 _symmetry_equiv_pos_as_xyz
 1  'x, y, z'
loop_
 _atom_site_type_symbol
 _atom_site_label
 _atom_site_symmetry_multiplicity
 _atom_site_fract_x
 _atom_site_fract_y
 _atom_site_fract_z
 _atom_site_fract_occupancy
 Ba  Ba1  1  0.45467  0.09971  0.00000  1
 Te  Te1  1  0.09591  0.42046  0.00000  1
 Zr  Zr1  1  -0.15825  -0.20648  0.00000  1
