CIF file written using JARVIS-Tools package.
data_LiTiCoO4
_symmetry_space_group_name_H-M  'P4_322'
_cell_length_a       5.90439
_cell_length_b       8.24444
_cell_length_c       5.90442
_cell_angle_alpha    89.9998
_cell_angle_beta     90.0005
_cell_angle_gamma    90.0013

_symmetry_Int_Tables_number  95
_chemical_formula_structural  LiTiCoO4
_chemical_formula_sum  Li4Ti4Co4O6
_cell_volume  287.4175751180038
_cell_formula_units_Z  4
loop_
  _symmetry_equiv_pos_site_id
 _symmetry_equiv_pos_as_xyz
 1  'x, y, z'
loop_
 _atom_site_type_symbol
 _atom_site_label
 _atom_site_symmetry_multiplicity
 _atom_site_fract_x
 _atom_site_fract_y
 _atom_site_fract_z
 _atom_site_fract_occupancy
 Co  Co1  1  0.74411  0.87500  0.25588  1
 Co  Co2  1  0.25588  0.37500  0.74412  1
 Co  Co3  1  0.74412  0.12500  0.74412  1
 Co  Co4  1  0.25588  0.62500  0.25588  1
 Li  Li1  1  0.22705  -0.00000  0.00000  1
 Li  Li2  1  -0.00000  0.75000  0.77295  1
 Li  Li3  1  0.00000  0.25000  0.22705  1
 Li  Li4  1  0.77295  0.50000  -0.00000  1
 O  O1  1  0.51328  0.51209  0.73706  1
 O  O2  1  0.01047  0.99510  0.26345  1
 O  O3  1  0.98953  0.50490  0.26345  1
 O  O4  1  0.73655  0.75490  0.98954  1
 O  O5  1  0.01047  0.00490  0.73655  1
 O  O6  1  0.98953  0.49510  0.73655  1
 O  O7  1  0.73655  0.24510  0.01047  1
 O  O8  1  0.26345  0.25489  0.01047  1
 O  O9  1  0.48672  0.01208  0.26294  1
 O  O10  1  0.26294  0.76208  0.51327  1
 O  O11  1  0.26294  0.23792  0.48672  1
 O  O12  1  0.73707  0.26208  0.48672  1
 O  O13  1  0.26345  0.74510  0.98953  1
 O  O14  1  0.73706  0.73791  0.51328  1
 O  O15  1  0.51328  0.48792  0.26293  1
 O  O16  1  0.48673  0.98792  0.73706  1
 Ti  Ti1  1  0.50000  0.75000  0.77669  1
 Ti  Ti2  1  0.77669  0.50000  0.50000  1
 Ti  Ti3  1  0.22331  -0.00000  0.50000  1
 Ti  Ti4  1  0.50000  0.25000  0.22331  1
