CIF file written using JARVIS-Tools package.
data_Li2Ni3OF6
_symmetry_space_group_name_H-M  'P-1'
_cell_length_a       5.93505
_cell_length_b       6.51167
_cell_length_c       7.81202
_cell_angle_alpha    66.6443
_cell_angle_beta     69.5147
_cell_angle_gamma    79.2798

_symmetry_Int_Tables_number  2
_chemical_formula_structural  Li2Ni3OF6
_chemical_formula_sum  Li4Ni6O2F2
_cell_volume  259.25322800327547
_cell_formula_units_Z  2
loop_
  _symmetry_equiv_pos_site_id
 _symmetry_equiv_pos_as_xyz
 1  'x, y, z'
loop_
 _atom_site_type_symbol
 _atom_site_label
 _atom_site_symmetry_multiplicity
 _atom_site_fract_x
 _atom_site_fract_y
 _atom_site_fract_z
 _atom_site_fract_occupancy
 F  F1  1  0.90434  0.29422  0.56321  1
 F  F2  1  0.22842  0.01329  0.99942  1
 F  F3  1  0.82682  0.13649  0.27239  1
 F  F4  1  0.67672  0.84668  0.72994  1
 F  F5  1  0.32328  0.15332  0.27006  1
 F  F6  1  0.17318  0.86351  0.72761  1
 F  F7  1  0.77158  0.98671  0.00058  1
 F  F8  1  0.62659  0.71935  0.43851  1
 F  F9  1  0.46027  0.43694  0.86602  1
 F  F10  1  0.09566  0.70578  0.43679  1
 F  F11  1  0.53973  0.56306  0.13398  1
 F  F12  1  0.37341  0.28065  0.56149  1
 Li  Li1  1  0.31624  0.85577  0.46849  1
 Li  Li2  1  0.68376  0.14423  0.53151  1
 Li  Li3  1  0.87389  0.69895  0.93049  1
 Li  Li4  1  0.12611  0.30105  0.06951  1
 Ni  Ni1  1  0.21855  0.43037  0.34456  1
 Ni  Ni2  1  0.07458  0.16286  0.77989  1
 Ni  Ni3  1  0.64758  0.27392  0.06883  1
 Ni  Ni4  1  0.35242  0.72608  0.93117  1
 Ni  Ni5  1  0.92542  0.83714  0.22011  1
 Ni  Ni6  1  0.78145  0.56963  0.65544  1
 O  O1  1  0.06857  0.58491  0.13627  1
 O  O2  1  0.93143  0.41509  0.86373  1
