CIF file written using JARVIS-Tools package.
data_Y4CrS7
_symmetry_space_group_name_H-M  'Cm'
_cell_length_a       6.47516
_cell_length_b       6.47516
_cell_length_c       11.4073
_cell_angle_alpha    74.667
_cell_angle_beta     74.667
_cell_angle_gamma    34.0747

_symmetry_Int_Tables_number  8
_chemical_formula_structural  Y4CrS7
_chemical_formula_sum  Y4CrS7
_cell_volume  257.5178270710917
_cell_formula_units_Z  1
loop_
  _symmetry_equiv_pos_site_id
 _symmetry_equiv_pos_as_xyz
 1  'x, y, z'
loop_
 _atom_site_type_symbol
 _atom_site_label
 _atom_site_symmetry_multiplicity
 _atom_site_fract_x
 _atom_site_fract_y
 _atom_site_fract_z
 _atom_site_fract_occupancy
 Cr  Cr1  1  0.88895  0.88895  0.42370  1
 S  S1  1  0.75246  0.75246  0.63315  1
 S  S2  1  0.27834  0.27834  0.35456  1
 S  S3  1  0.32929  0.32929  0.05643  1
 S  S4  1  0.65434  0.65434  0.94682  1
 S  S5  1  0.02712  0.02712  0.22857  1
 S  S6  1  0.96324  0.96324  0.78300  1
 S  S7  1  0.50708  0.50708  0.47685  1
 Y  Y1  1  0.68726  0.68726  0.21888  1
 Y  Y2  1  0.30150  0.30150  0.80647  1
 Y  Y3  1  0.99291  0.99291  0.00706  1
 Y  Y4  1  0.11752  0.11752  0.56451  1
