CIF file written using JARVIS-Tools package.
data_CaBeSe
_symmetry_space_group_name_H-M  'Amm2'
_cell_length_a       5.92148
_cell_length_b       3.67005
_cell_length_c       4.16105
_cell_angle_alpha    90
_cell_angle_beta     90
_cell_angle_gamma    71.947

_symmetry_Int_Tables_number  38
_chemical_formula_structural  CaBeSe
_chemical_formula_sum  CaBeSe
_cell_volume  85.97664662214525
_cell_formula_units_Z  1
loop_
  _symmetry_equiv_pos_site_id
 _symmetry_equiv_pos_as_xyz
 1  'x, y, z'
loop_
 _atom_site_type_symbol
 _atom_site_label
 _atom_site_symmetry_multiplicity
 _atom_site_fract_x
 _atom_site_fract_y
 _atom_site_fract_z
 _atom_site_fract_occupancy
 Be  Be1  1  -0.18116  0.04850  0.00000  1
 Ca  Ca1  1  0.43038  -0.25726  0.00000  1
 Se  Se1  1  0.02280  0.44653  0.00000  1
