CIF file written using JARVIS-Tools package.
data_BeAs2
_symmetry_space_group_name_H-M  'Cm'
_cell_length_a       3.55728
_cell_length_b       3.55747
_cell_length_c       6.8105
_cell_angle_alpha    121.444
_cell_angle_beta     89.8471
_cell_angle_gamma    120

_symmetry_Int_Tables_number  8
_chemical_formula_structural  BeAs2
_chemical_formula_sum  BeAs2
_cell_volume  59.665124445681826
_cell_formula_units_Z  1
loop_
  _symmetry_equiv_pos_site_id
 _symmetry_equiv_pos_as_xyz
 1  'x, y, z'
loop_
 _atom_site_type_symbol
 _atom_site_label
 _atom_site_symmetry_multiplicity
 _atom_site_fract_x
 _atom_site_fract_y
 _atom_site_fract_z
 _atom_site_fract_occupancy
 As  As1  1  0.73859  0.65848  0.20308  1
 As  As2  1  0.44887  0.07454  0.76339  1
 Be  Be1  1  0.92672  0.03257  0.98285  1
