CIF file written using JARVIS-Tools package.
data_MnCSO7
_symmetry_space_group_name_H-M  'P2_1/m'
_cell_length_a       6.13945
_cell_length_b       5.02935
_cell_length_c       7.83338
_cell_angle_alpha    83.435
_cell_angle_beta     90
_cell_angle_gamma    90

_symmetry_Int_Tables_number  11
_chemical_formula_structural  MnCSO7
_chemical_formula_sum  Mn2C2S2O4
_cell_volume  240.289023809864
_cell_formula_units_Z  2
loop_
  _symmetry_equiv_pos_site_id
 _symmetry_equiv_pos_as_xyz
 1  'x, y, z'
loop_
 _atom_site_type_symbol
 _atom_site_label
 _atom_site_symmetry_multiplicity
 _atom_site_fract_x
 _atom_site_fract_y
 _atom_site_fract_z
 _atom_site_fract_occupancy
 C  C1  1  0.25000  0.28793  0.98067  1
 C  C2  1  0.75000  0.71207  0.01933  1
 Mn  Mn1  1  0.25000  0.20739  0.69327  1
 Mn  Mn2  1  0.75000  0.79261  0.30673  1
 O  O1  1  0.75000  0.66671  0.87117  1
 O  O2  1  0.25000  0.04742  0.92014  1
 O  O3  1  0.25000  0.47087  0.84001  1
 O  O4  1  0.75000  0.95258  0.07986  1
 O  O5  1  0.56155  0.19044  0.69659  1
 O  O6  1  0.93845  0.19044  0.69659  1
 O  O7  1  0.75000  0.55190  0.52341  1
 O  O8  1  0.75000  0.11311  0.43258  1
 O  O9  1  0.25000  0.88689  0.56742  1
 O  O10  1  0.43845  0.80956  0.30341  1
 O  O11  1  0.06155  0.80956  0.30341  1
 O  O12  1  0.75000  0.52913  0.15999  1
 O  O13  1  0.25000  0.44810  0.47659  1
 O  O14  1  0.25000  0.33329  0.12883  1
 S  S1  1  0.25000  0.73881  0.41683  1
 S  S2  1  0.75000  0.26119  0.58317  1
