CIF file written using JARVIS-Tools package.
data_U2Ga10CoNi
_symmetry_space_group_name_H-M  'P4/mmm'
_cell_length_a       4.23849
_cell_length_b       4.23849
_cell_length_c       13.5311
_cell_angle_alpha    90
_cell_angle_beta     90
_cell_angle_gamma    90

_symmetry_Int_Tables_number  123
_chemical_formula_structural  U2Ga10CoNi
_chemical_formula_sum  U2Ga0CoNi
_cell_volume  243.0830763113286
_cell_formula_units_Z  1
loop_
  _symmetry_equiv_pos_site_id
 _symmetry_equiv_pos_as_xyz
 1  'x, y, z'
loop_
 _atom_site_type_symbol
 _atom_site_label
 _atom_site_symmetry_multiplicity
 _atom_site_fract_x
 _atom_site_fract_y
 _atom_site_fract_z
 _atom_site_fract_occupancy
 Co  Co1  1  0.00000  0.00000  0.00000  1
 Ga  Ga1  1  0.50000  0.00000  0.09554  1
 Ga  Ga2  1  0.50000  0.00000  0.59784  1
 Ga  Ga3  1  0.00000  0.50000  0.09554  1
 Ga  Ga4  1  0.00000  0.50000  0.59784  1
 Ga  Ga5  1  0.50000  0.00000  0.90446  1
 Ga  Ga6  1  0.50000  0.00000  0.40216  1
 Ga  Ga7  1  0.00000  0.50000  0.90446  1
 Ga  Ga8  1  0.00000  0.50000  0.40216  1
 Ga  Ga9  1  0.50000  0.50000  0.75129  1
 Ga  Ga10  1  0.50000  0.50000  0.24871  1
 Ni  Ni1  1  0.00000  0.00000  0.50000  1
 U  U1  1  0.00000  0.00000  0.75167  1
 U  U2  1  0.00000  0.00000  0.24833  1
