CIF file written using JARVIS-Tools package.
data_TiCrSi4
_symmetry_space_group_name_H-M  'P2'
_cell_length_a       12.8041
_cell_length_b       4.6124
_cell_length_c       4.62778
_cell_angle_alpha    60.3721
_cell_angle_beta     90
_cell_angle_gamma    90

_symmetry_Int_Tables_number  3
_chemical_formula_structural  TiCrSi4
_chemical_formula_sum  Ti3Cr3Si2
_cell_volume  237.5716434290248
_cell_formula_units_Z  3
loop_
  _symmetry_equiv_pos_site_id
 _symmetry_equiv_pos_as_xyz
 1  'x, y, z'
loop_
 _atom_site_type_symbol
 _atom_site_label
 _atom_site_symmetry_multiplicity
 _atom_site_fract_x
 _atom_site_fract_y
 _atom_site_fract_z
 _atom_site_fract_occupancy
 Cr  Cr1  1  0.91411  0.50000  0.00000  1
 Cr  Cr2  1  0.42015  0.50000  0.00000  1
 Cr  Cr3  1  0.74920  -0.00000  0.50000  1
 Si  Si1  1  0.41798  0.16568  0.66852  1
 Si  Si2  1  0.91288  0.84006  0.33369  1
 Si  Si3  1  0.41798  0.83432  0.33148  1
 Si  Si4  1  0.58444  0.15863  0.16148  1
 Si  Si5  1  0.25326  0.32221  0.84219  1
 Si  Si6  1  0.75248  0.32922  0.84295  1
 Si  Si7  1  0.07885  0.83512  0.84409  1
 Si  Si8  1  0.07885  0.16488  0.15591  1
 Si  Si9  1  0.58444  0.84137  0.83852  1
 Si  Si10  1  0.75248  0.67078  0.15705  1
 Si  Si11  1  0.25326  0.67779  0.15781  1
 Si  Si12  1  0.91288  0.15994  0.66631  1
 Ti  Ti1  1  0.08201  0.50000  0.50000  1
 Ti  Ti2  1  0.58600  0.50000  0.50000  1
 Ti  Ti3  1  0.24877  -0.00000  0.50000  1
