CIF file written using JARVIS-Tools package.
data_TbTiFe11C
_symmetry_space_group_name_H-M  'Imm2'
_cell_length_a       4.79423
_cell_length_b       6.43663
_cell_length_c       6.43663
_cell_angle_alpha    97.6248
_cell_angle_beta     111.865
_cell_angle_gamma    68.1351

_symmetry_Int_Tables_number  44
_chemical_formula_structural  TbTiFe11C
_chemical_formula_sum  TbTiFeC
_cell_volume  171.07322722917687
_cell_formula_units_Z  1
loop_
  _symmetry_equiv_pos_site_id
 _symmetry_equiv_pos_as_xyz
 1  'x, y, z'
loop_
 _atom_site_type_symbol
 _atom_site_label
 _atom_site_symmetry_multiplicity
 _atom_site_fract_x
 _atom_site_fract_y
 _atom_site_fract_z
 _atom_site_fract_occupancy
 C  C1  1  0.50128  0.99872  0.00128  1
 Fe  Fe1  1  0.72576  0.77424  0.22576  1
 Fe  Fe2  1  0.27614  0.22386  0.77614  1
 Fe  Fe3  1  0.49792  0.78109  0.77692  1
 Fe  Fe4  1  0.49792  0.22308  0.21891  1
 Fe  Fe5  1  0.50139  0.99729  0.50027  1
 Fe  Fe6  1  0.00159  0.99729  0.50027  1
 Fe  Fe7  1  0.50139  0.49973  0.00271  1
 Fe  Fe8  1  0.00159  0.49973  0.00271  1
 Fe  Fe9  1  0.35525  0.64475  0.35525  1
 Fe  Fe10  1  0.00038  0.35750  0.35826  1
 Fe  Fe11  1  0.00038  0.64174  0.64250  1
 Tb  Tb1  1  0.00766  0.99234  0.00766  1
 Ti  Ti1  1  0.63136  0.36864  0.63136  1
