CIF file written using JARVIS-Tools package.
data_Li3MnCo4O8
_symmetry_space_group_name_H-M  'C2/m'
_cell_length_a       5.80493
_cell_length_b       5.80492
_cell_length_c       5.87856
_cell_angle_alpha    59.6448
_cell_angle_beta     59.6449
_cell_angle_gamma    60.0665

_symmetry_Int_Tables_number  12
_chemical_formula_structural  Li3MnCo4O8
_chemical_formula_sum  Li3MnCo4O8
_cell_volume  139.38388411345392
_cell_formula_units_Z  1
loop_
  _symmetry_equiv_pos_site_id
 _symmetry_equiv_pos_as_xyz
 1  'x, y, z'
loop_
 _atom_site_type_symbol
 _atom_site_label
 _atom_site_symmetry_multiplicity
 _atom_site_fract_x
 _atom_site_fract_y
 _atom_site_fract_z
 _atom_site_fract_occupancy
 Co  Co1  1  0.50000  0.50000  0.50000  1
 Co  Co2  1  0.00000  0.00000  0.00000  1
 Co  Co3  1  -0.00000  0.50000  0.00000  1
 Co  Co4  1  0.50000  -0.00000  0.00000  1
 Li  Li1  1  0.00000  0.50000  0.50000  1
 Li  Li2  1  -0.00000  0.00000  0.50000  1
 Li  Li3  1  0.50000  0.00000  0.50000  1
 Mn  Mn1  1  0.50000  0.50000  0.00000  1
 O  O1  1  0.73788  0.73788  0.76631  1
 O  O2  1  0.74014  0.26723  0.76219  1
 O  O3  1  0.26723  0.74014  0.76219  1
 O  O4  1  0.25192  0.25192  0.75355  1
 O  O5  1  0.74808  0.74808  0.24645  1
 O  O6  1  0.73277  0.25986  0.23781  1
 O  O7  1  0.25986  0.73277  0.23781  1
 O  O8  1  0.26212  0.26212  0.23369  1
