CIF file written using JARVIS-Tools package.
data_BeCoSi
_symmetry_space_group_name_H-M  'P-6m2'
_cell_length_a       3.89407
_cell_length_b       3.89399
_cell_length_c       2.77577
_cell_angle_alpha    90
_cell_angle_beta     90
_cell_angle_gamma    119.998

_symmetry_Int_Tables_number  187
_chemical_formula_structural  BeCoSi
_chemical_formula_sum  BeCoSi
_cell_volume  36.45194589557964
_cell_formula_units_Z  1
loop_
  _symmetry_equiv_pos_site_id
 _symmetry_equiv_pos_as_xyz
 1  'x, y, z'
loop_
 _atom_site_type_symbol
 _atom_site_label
 _atom_site_symmetry_multiplicity
 _atom_site_fract_x
 _atom_site_fract_y
 _atom_site_fract_z
 _atom_site_fract_occupancy
 Be  Be1  1  0.40880  0.08451  0.00000  1
 Co  Co1  1  -0.25784  -0.24880  0.00000  1
 Si  Si1  1  0.07550  0.41786  0.00000  1
