CIF file written using JARVIS-Tools package.
data_Tb2Fe17C2
_symmetry_space_group_name_H-M  'C2/m'
_cell_length_a       6.33416
_cell_length_b       6.33415
_cell_length_c       6.37649
_cell_angle_alpha    83.1782
_cell_angle_beta     83.1782
_cell_angle_gamma    83.0885

_symmetry_Int_Tables_number  12
_chemical_formula_structural  Tb2Fe17C2
_chemical_formula_sum  Tb2Fe7C2
_cell_volume  250.75655513740043
_cell_formula_units_Z  1
loop_
  _symmetry_equiv_pos_site_id
 _symmetry_equiv_pos_as_xyz
 1  'x, y, z'
loop_
 _atom_site_type_symbol
 _atom_site_label
 _atom_site_symmetry_multiplicity
 _atom_site_fract_x
 _atom_site_fract_y
 _atom_site_fract_z
 _atom_site_fract_occupancy
 C  C1  1  -0.00000  0.50000  0.50000  1
 C  C2  1  0.50000  0.00000  0.50000  1
 Fe  Fe1  1  0.90702  0.90702  0.90930  1
 Fe  Fe2  1  0.09298  0.09298  0.09070  1
 Fe  Fe3  1  0.34357  0.34357  0.85915  1
 Fe  Fe4  1  0.34406  0.85316  0.33820  1
 Fe  Fe5  1  0.85316  0.34406  0.33820  1
 Fe  Fe6  1  0.65643  0.65643  0.14085  1
 Fe  Fe7  1  0.65594  0.14684  0.66180  1
 Fe  Fe8  1  0.14684  0.65594  0.66180  1
 Fe  Fe9  1  0.27547  0.72453  0.00000  1
 Fe  Fe10  1  0.00225  0.28115  0.71748  1
 Fe  Fe11  1  0.28115  0.00225  0.71748  1
 Fe  Fe12  1  0.99775  0.71885  0.28252  1
 Fe  Fe13  1  0.72453  0.27547  0.00000  1
 Fe  Fe14  1  -0.00000  0.00000  0.50000  1
 Fe  Fe15  1  -0.00000  0.50000  0.00000  1
 Fe  Fe16  1  0.50000  -0.00000  0.00000  1
 Fe  Fe17  1  0.71885  0.99775  0.28252  1
 Tb  Tb1  1  0.35268  0.35268  0.33219  1
 Tb  Tb2  1  0.64732  0.64732  0.66781  1
