CIF file written using JARVIS-Tools package.
data_Li3MgNi4O8
_symmetry_space_group_name_H-M  'R-3m'
_cell_length_a       5.79485
_cell_length_b       5.79485
_cell_length_c       5.79485
_cell_angle_alpha    60.5322
_cell_angle_beta     60.5322
_cell_angle_gamma    60.5322

_symmetry_Int_Tables_number  166
_chemical_formula_structural  Li3MgNi4O8
_chemical_formula_sum  Li3MgNi4O8
_cell_volume  139.2525702525751
_cell_formula_units_Z  1
loop_
  _symmetry_equiv_pos_site_id
 _symmetry_equiv_pos_as_xyz
 1  'x, y, z'
loop_
 _atom_site_type_symbol
 _atom_site_label
 _atom_site_symmetry_multiplicity
 _atom_site_fract_x
 _atom_site_fract_y
 _atom_site_fract_z
 _atom_site_fract_occupancy
 Li  Li1  1  0.00000  0.50000  0.00000  1
 Li  Li2  1  0.50000  0.00000  -0.00000  1
 Li  Li3  1  0.00000  -0.00000  0.50000  1
 Mg  Mg1  1  0.50000  0.50000  0.50000  1
 Ni  Ni1  1  0.50000  -0.00000  0.50000  1
 Ni  Ni2  1  0.00000  0.00000  0.00000  1
 Ni  Ni3  1  0.00000  0.50000  0.50000  1
 Ni  Ni4  1  0.50000  0.50000  -0.00000  1
 O  O1  1  0.75082  0.26689  0.75082  1
 O  O2  1  0.24918  0.73311  0.24918  1
 O  O3  1  0.73311  0.24918  0.24918  1
 O  O4  1  0.25877  0.25877  0.25877  1
 O  O5  1  0.74123  0.74123  0.74123  1
 O  O6  1  0.26689  0.75082  0.75082  1
 O  O7  1  0.24918  0.24918  0.73311  1
 O  O8  1  0.75082  0.75082  0.26689  1
