CIF file written using JARVIS-Tools package.
data_AgClO
_symmetry_space_group_name_H-M  'Pm'
_cell_length_a       5.31813
_cell_length_b       5.06299
_cell_length_c       3.3706
_cell_angle_alpha    90
_cell_angle_beta     90
_cell_angle_gamma    133.242

_symmetry_Int_Tables_number  6
_chemical_formula_structural  AgClO
_chemical_formula_sum  AgClO
_cell_volume  66.11205381688548
_cell_formula_units_Z  1
loop_
  _symmetry_equiv_pos_site_id
 _symmetry_equiv_pos_as_xyz
 1  'x, y, z'
loop_
 _atom_site_type_symbol
 _atom_site_label
 _atom_site_symmetry_multiplicity
 _atom_site_fract_x
 _atom_site_fract_y
 _atom_site_fract_z
 _atom_site_fract_occupancy
 Ag  Ag1  1  0.08917  0.09459  0.00000  1
 Cl  Cl1  1  0.38197  -0.10455  0.00000  1
 O  O1  1  -0.18158  0.25622  0.00000  1
