CIF file written using JARVIS-Tools package.
data_AgClO3
_symmetry_space_group_name_H-M  'R3m'
_cell_length_a       4.21903
_cell_length_b       4.21903
_cell_length_c       4.21903
_cell_angle_alpha    79.232
_cell_angle_beta     79.232
_cell_angle_gamma    79.232

_symmetry_Int_Tables_number  160
_chemical_formula_structural  AgClO3
_chemical_formula_sum  AgClO3
_cell_volume  71.57477347372577
_cell_formula_units_Z  1
loop_
  _symmetry_equiv_pos_site_id
 _symmetry_equiv_pos_as_xyz
 1  'x, y, z'
loop_
 _atom_site_type_symbol
 _atom_site_label
 _atom_site_symmetry_multiplicity
 _atom_site_fract_x
 _atom_site_fract_y
 _atom_site_fract_z
 _atom_site_fract_occupancy
 Ag  Ag1  1  -0.01557  -0.01557  -0.01557  1
 Cl  Cl1  1  0.49518  0.49518  0.49518  1
 O  O1  1  0.12524  0.57758  0.57758  1
 O  O2  1  0.57758  0.57758  0.12524  1
 O  O3  1  0.57758  0.12524  0.57758  1
