CIF file written using JARVIS-Tools package.
data_Li4Mn3FeO8
_symmetry_space_group_name_H-M  'R-3m'
_cell_length_a       5.78158
_cell_length_b       5.78158
_cell_length_c       5.78157
_cell_angle_alpha    58.5594
_cell_angle_beta     58.5595
_cell_angle_gamma    58.5595

_symmetry_Int_Tables_number  166
_chemical_formula_structural  Li4Mn3FeO8
_chemical_formula_sum  Li4Mn3FeO8
_cell_volume  132.15277024182677
_cell_formula_units_Z  1
loop_
  _symmetry_equiv_pos_site_id
 _symmetry_equiv_pos_as_xyz
 1  'x, y, z'
loop_
 _atom_site_type_symbol
 _atom_site_label
 _atom_site_symmetry_multiplicity
 _atom_site_fract_x
 _atom_site_fract_y
 _atom_site_fract_z
 _atom_site_fract_occupancy
 Fe  Fe1  1  0.00000  0.00000  0.00000  1
 Li  Li1  1  0.50000  0.50000  0.50000  1
 Li  Li2  1  -0.00000  -0.00000  0.50000  1
 Li  Li3  1  0.50000  -0.00000  -0.00000  1
 Li  Li4  1  0.00000  0.50000  0.00000  1
 Mn  Mn1  1  0.50000  0.50000  0.00000  1
 Mn  Mn2  1  0.00000  0.50000  0.50000  1
 Mn  Mn3  1  0.50000  -0.00000  0.50000  1
 O  O1  1  0.25675  0.25675  0.25675  1
 O  O2  1  0.75629  0.75629  0.25950  1
 O  O3  1  0.25950  0.75629  0.75629  1
 O  O4  1  0.74325  0.74325  0.74325  1
 O  O5  1  0.75629  0.25950  0.75629  1
 O  O6  1  0.24371  0.24371  0.74050  1
 O  O7  1  0.74050  0.24371  0.24371  1
 O  O8  1  0.24371  0.74050  0.24371  1
