CIF file written using JARVIS-Tools package.
data_MnPO4
_symmetry_space_group_name_H-M  'Cc'
_cell_length_a       5.12276
_cell_length_b       8.87486
_cell_length_c       5.12338
_cell_angle_alpha    66.5823
_cell_angle_beta     55.0358
_cell_angle_gamma    66.5712

_symmetry_Int_Tables_number  9
_chemical_formula_structural  MnPO4
_chemical_formula_sum  Mn2P2O8
_cell_volume  170.63735751892796
_cell_formula_units_Z  2
loop_
  _symmetry_equiv_pos_site_id
 _symmetry_equiv_pos_as_xyz
 1  'x, y, z'
loop_
 _atom_site_type_symbol
 _atom_site_label
 _atom_site_symmetry_multiplicity
 _atom_site_fract_x
 _atom_site_fract_y
 _atom_site_fract_z
 _atom_site_fract_occupancy
 Mn  Mn1  1  0.19868  0.25882  0.28694  1
 Mn  Mn2  1  0.78702  0.75879  0.69864  1
 O  O1  1  0.03881  0.77685  0.24292  1
 O  O2  1  0.20341  0.45736  0.33442  1
 O  O3  1  0.27462  0.14665  0.99512  1
 O  O4  1  0.50943  0.11718  0.42023  1
 O  O5  1  0.49514  0.64664  0.77467  1
 O  O6  1  0.74288  0.27682  0.53898  1
 O  O7  1  0.92018  0.61718  0.00943  1
 O  O8  1  0.83453  0.95734  0.70334  1
 P  P1  1  0.16212  0.62623  0.08954  1
 P  P2  1  0.58955  0.12622  0.66214  1
