CIF file written using JARVIS-Tools package.
data_Ta2CuO6
_symmetry_space_group_name_H-M  'Immm'
_cell_length_a       6.55765
_cell_length_b       6.55765
_cell_length_c       6.55765
_cell_angle_alpha    110.233
_cell_angle_beta     109.24
_cell_angle_gamma    108.943

_symmetry_Int_Tables_number  71
_chemical_formula_structural  Ta2CuO6
_chemical_formula_sum  Ta4Cu2O2
_cell_volume  217.05102209497815
_cell_formula_units_Z  2
loop_
  _symmetry_equiv_pos_site_id
 _symmetry_equiv_pos_as_xyz
 1  'x, y, z'
loop_
 _atom_site_type_symbol
 _atom_site_label
 _atom_site_symmetry_multiplicity
 _atom_site_fract_x
 _atom_site_fract_y
 _atom_site_fract_z
 _atom_site_fract_occupancy
 Cu  Cu1  1  0.50000  0.00000  0.50000  1
 Cu  Cu2  1  -0.00000  0.50000  0.50000  1
 O  O1  1  0.48843  0.29397  0.19446  1
 O  O2  1  0.17705  0.48432  0.30728  1
 O  O3  1  0.82295  0.51568  0.69272  1
 O  O4  1  0.68385  0.18715  0.87100  1
 O  O5  1  0.17705  0.86977  0.69272  1
 O  O6  1  0.82295  0.13023  0.30728  1
 O  O7  1  0.09951  0.29397  0.80554  1
 O  O8  1  0.31615  0.81285  0.12900  1
 O  O9  1  0.90049  0.70603  0.19446  1
 O  O10  1  0.68385  0.81285  0.49670  1
 O  O11  1  0.31615  0.18715  0.50330  1
 O  O12  1  0.51157  0.70603  0.80554  1
 Ta  Ta1  1  0.50000  0.00000  -0.00000  1
 Ta  Ta2  1  -0.00000  0.00000  0.50000  1
 Ta  Ta3  1  0.50000  0.50000  0.50000  1
 Ta  Ta4  1  0.00000  0.50000  -0.00000  1
