CIF file written using JARVIS-Tools package.
data_V2FeO6
_symmetry_space_group_name_H-M  'C2/c'
_cell_length_a       6.70758
_cell_length_b       6.7075
_cell_length_c       5.77046
_cell_angle_alpha    74.7782
_cell_angle_beta     105.223
_cell_angle_gamma    96.3467

_symmetry_Int_Tables_number  15
_chemical_formula_structural  V2FeO6
_chemical_formula_sum  V4Fe2O2
_cell_volume  241.47927573039735
_cell_formula_units_Z  2
loop_
  _symmetry_equiv_pos_site_id
 _symmetry_equiv_pos_as_xyz
 1  'x, y, z'
loop_
 _atom_site_type_symbol
 _atom_site_label
 _atom_site_symmetry_multiplicity
 _atom_site_fract_x
 _atom_site_fract_y
 _atom_site_fract_z
 _atom_site_fract_occupancy
 Fe  Fe1  1  0.08425  0.08425  0.75001  1
 Fe  Fe2  1  0.91575  0.91575  0.24999  1
 O  O1  1  0.62804  0.91463  0.27046  1
 O  O2  1  0.03206  0.80713  0.64086  1
 O  O3  1  0.08537  0.37196  0.77044  1
 O  O4  1  0.91463  0.62803  0.22956  1
 O  O5  1  0.37719  0.65591  0.56378  1
 O  O6  1  0.19288  0.96794  0.14086  1
 O  O7  1  0.34410  0.62281  0.06378  1
 O  O8  1  0.96793  0.19288  0.35914  1
 O  O9  1  0.37197  0.08537  0.72954  1
 O  O10  1  0.62281  0.34409  0.43622  1
 O  O11  1  0.80712  0.03206  0.85914  1
 O  O12  1  0.65591  0.37719  0.93622  1
 V  V1  1  0.79674  0.39060  0.23928  1
 V  V2  1  0.60940  0.20326  0.73927  1
 V  V3  1  0.39061  0.79674  0.26073  1
 V  V4  1  0.20326  0.60940  0.76072  1
