CIF file written using JARVIS-Tools package.
data_BaAgO
_symmetry_space_group_name_H-M  'Pm'
_cell_length_a       6.14952
_cell_length_b       7.27279
_cell_length_c       3.86689
_cell_angle_alpha    90
_cell_angle_beta     90
_cell_angle_gamma    145.466

_symmetry_Int_Tables_number  6
_chemical_formula_structural  BaAgO
_chemical_formula_sum  BaAgO
_cell_volume  98.04038310438285
_cell_formula_units_Z  1
loop_
  _symmetry_equiv_pos_site_id
 _symmetry_equiv_pos_as_xyz
 1  'x, y, z'
loop_
 _atom_site_type_symbol
 _atom_site_label
 _atom_site_symmetry_multiplicity
 _atom_site_fract_x
 _atom_site_fract_y
 _atom_site_fract_z
 _atom_site_fract_occupancy
 Ag  Ag1  1  0.13727  -0.15714  0.00000  1
 Ba  Ba1  1  0.08872  0.33426  0.00000  1
 O  O1  1  0.77401  0.82288  0.00000  1
