CIF file written using JARVIS-Tools package.
data_Li4Ni3BiO8
_symmetry_space_group_name_H-M  'R-3m'
_cell_length_a       5.99138
_cell_length_b       5.99139
_cell_length_c       5.99139
_cell_angle_alpha    60.7545
_cell_angle_beta     60.7544
_cell_angle_gamma    60.7545

_symmetry_Int_Tables_number  166
_chemical_formula_structural  Li4Ni3BiO8
_chemical_formula_sum  Li4Ni3BiO8
_cell_volume  154.66693364358278
_cell_formula_units_Z  1
loop_
  _symmetry_equiv_pos_site_id
 _symmetry_equiv_pos_as_xyz
 1  'x, y, z'
loop_
 _atom_site_type_symbol
 _atom_site_label
 _atom_site_symmetry_multiplicity
 _atom_site_fract_x
 _atom_site_fract_y
 _atom_site_fract_z
 _atom_site_fract_occupancy
 Bi  Bi1  1  0.00000  0.00000  0.00000  1
 Li  Li1  1  -0.00000  0.50000  0.00000  1
 Li  Li2  1  0.00000  0.00000  0.50000  1
 Li  Li3  1  0.50000  0.00000  0.00000  1
 Li  Li4  1  0.50000  0.50000  0.50000  1
 Ni  Ni1  1  -0.00000  0.50000  0.50000  1
 Ni  Ni2  1  0.50000  0.50000  0.00000  1
 Ni  Ni3  1  0.50000  0.00000  0.50000  1
 O  O1  1  0.25233  0.73906  0.25233  1
 O  O2  1  0.25233  0.25233  0.73906  1
 O  O3  1  0.73906  0.25233  0.25233  1
 O  O4  1  0.73559  0.73559  0.73559  1
 O  O5  1  0.26441  0.26441  0.26441  1
 O  O6  1  0.26094  0.74767  0.74767  1
 O  O7  1  0.74767  0.74767  0.26094  1
 O  O8  1  0.74767  0.26094  0.74767  1
