CIF file written using JARVIS-Tools package.
data_SrLaAl3O7
_symmetry_space_group_name_H-M  'Cmm2'
_cell_length_a       7.92549
_cell_length_b       7.92549
_cell_length_c       5.24573
_cell_angle_alpha    90
_cell_angle_beta     90
_cell_angle_gamma    90.3838

_symmetry_Int_Tables_number  35
_chemical_formula_structural  SrLaAl3O7
_chemical_formula_sum  Sr2La2Al6O4
_cell_volume  329.4952272297357
_cell_formula_units_Z  2
loop_
  _symmetry_equiv_pos_site_id
 _symmetry_equiv_pos_as_xyz
 1  'x, y, z'
loop_
 _atom_site_type_symbol
 _atom_site_label
 _atom_site_symmetry_multiplicity
 _atom_site_fract_x
 _atom_site_fract_y
 _atom_site_fract_z
 _atom_site_fract_occupancy
 Al  Al1  1  0.85691  0.85691  0.03780  1
 Al  Al2  1  0.64330  0.35670  0.96245  1
 Al  Al3  1  0.14309  0.14309  0.03780  1
 Al  Al4  1  0.35670  0.64330  0.96245  1
 Al  Al5  1  0.50000  -0.00000  0.00012  1
 Al  Al6  1  0.00000  0.50000  0.00012  1
 La  La1  1  0.83635  0.16365  0.50796  1
 La  La2  1  0.16365  0.83635  0.50796  1
 O  O1  1  0.13324  0.13324  0.70473  1
 O  O2  1  0.66591  0.91787  0.18809  1
 O  O3  1  0.50000  0.50000  0.83631  1
 O  O4  1  0.33409  0.08213  0.18809  1
 O  O5  1  0.16239  0.58973  0.80777  1
 O  O6  1  0.41027  0.83761  0.80777  1
 O  O7  1  0.83761  0.41027  0.80777  1
 O  O8  1  0.00000  0.00000  0.18280  1
 O  O9  1  0.91787  0.66591  0.18809  1
 O  O10  1  0.86676  0.86676  0.70473  1
 O  O11  1  0.64961  0.35039  0.29415  1
 O  O12  1  0.08213  0.33409  0.18809  1
 O  O13  1  0.35039  0.64961  0.29415  1
 O  O14  1  0.58973  0.16239  0.80777  1
 Sr  Sr1  1  0.33898  0.33898  0.49152  1
 Sr  Sr2  1  0.66102  0.66102  0.49152  1
