CIF file written using JARVIS-Tools package.
data_Li3Mn2Co2O8
_symmetry_space_group_name_H-M  'P1'
_cell_length_a       2.83831
_cell_length_b       4.87919
_cell_length_c       9.6192
_cell_angle_alpha    90.5295
_cell_angle_beta     90.0305
_cell_angle_gamma    89.9967

_symmetry_Int_Tables_number  1
_chemical_formula_structural  Li3Mn2Co2O8
_chemical_formula_sum  Li3Mn2Co2O8
_cell_volume  133.206966203267
_cell_formula_units_Z  1
loop_
  _symmetry_equiv_pos_site_id
 _symmetry_equiv_pos_as_xyz
 1  'x, y, z'
loop_
 _atom_site_type_symbol
 _atom_site_label
 _atom_site_symmetry_multiplicity
 _atom_site_fract_x
 _atom_site_fract_y
 _atom_site_fract_z
 _atom_site_fract_occupancy
 Co  Co1  1  0.61740  0.79896  0.49513  1
 Co  Co2  1  0.11606  0.95818  0.00181  1
 Li  Li1  1  0.61623  0.79806  0.24059  1
 Li  Li2  1  0.11796  0.94951  0.74297  1
 Li  Li3  1  0.11642  0.29398  0.24035  1
 Mn  Mn1  1  0.61607  0.45711  0.99103  1
 Mn  Mn2  1  0.11741  0.30216  0.50350  1
 O  O1  1  0.11625  0.62152  0.10950  1
 O  O2  1  0.61759  0.12611  0.60619  1
 O  O3  1  0.61717  0.46015  0.38628  1
 O  O4  1  0.61590  0.79416  0.89478  1
 O  O5  1  0.61623  0.13108  0.11046  1
 O  O6  1  0.11757  0.64086  0.59871  1
 O  O7  1  0.11717  0.97004  0.38585  1
 O  O8  1  0.11593  0.28097  0.89335  1
