CIF file written using JARVIS-Tools package.
data_SrLa3Mn4O12
_symmetry_space_group_name_H-M  'P2'
_cell_length_a       5.47238
_cell_length_b       7.78297
_cell_length_c       5.52919
_cell_angle_alpha    90.0023
_cell_angle_beta     89.9979
_cell_angle_gamma    90.8158

_symmetry_Int_Tables_number  3
_chemical_formula_structural  SrLa3Mn4O12
_chemical_formula_sum  SrLa3Mn4O2
_cell_volume  235.47165821193056
_cell_formula_units_Z  1
loop_
  _symmetry_equiv_pos_site_id
 _symmetry_equiv_pos_as_xyz
 1  'x, y, z'
loop_
 _atom_site_type_symbol
 _atom_site_label
 _atom_site_symmetry_multiplicity
 _atom_site_fract_x
 _atom_site_fract_y
 _atom_site_fract_z
 _atom_site_fract_occupancy
 La  La1  1  0.00000  0.75000  0.49716  1
 La  La2  1  0.49999  0.75000  -0.00011  1
 La  La3  1  0.00000  0.25000  0.50003  1
 Mn  Mn1  1  0.00023  0.49885  0.00011  1
 Mn  Mn2  1  0.50007  0.00124  0.49982  1
 Mn  Mn3  1  -0.00022  0.00115  0.00011  1
 Mn  Mn4  1  0.49993  0.49876  0.49982  1
 O  O1  1  -0.00001  0.25000  0.94584  1
 O  O2  1  0.22474  0.52789  0.72479  1
 O  O3  1  0.77986  0.47857  0.28002  1
 O  O4  1  0.27010  0.48163  0.22990  1
 O  O5  1  0.77523  0.97210  0.72481  1
 O  O6  1  0.72991  0.01837  0.22991  1
 O  O7  1  0.27228  0.96813  0.77227  1
 O  O8  1  0.72771  0.53187  0.77227  1
 O  O9  1  0.22016  0.02143  0.28001  1
 O  O10  1  0.00001  0.75000  0.04958  1
 O  O11  1  0.49999  0.75000  0.44778  1
 O  O12  1  0.50001  0.25000  0.54321  1
 Sr  Sr1  1  0.50001  0.24999  0.00264  1
