CIF file written using JARVIS-Tools package.
data_Sr4Mn2Cu3Se4O4
_symmetry_space_group_name_H-M  'C222'
_cell_length_a       9.42841
_cell_length_b       9.4284
_cell_length_c       5.74107
_cell_angle_alpha    90
_cell_angle_beta     90
_cell_angle_gamma    144.545

_symmetry_Int_Tables_number  21
_chemical_formula_structural  Sr4Mn2Cu3Se4O4
_chemical_formula_sum  Sr4Mn2Cu3Se4O4
_cell_volume  296.03510920744736
_cell_formula_units_Z  1
loop_
  _symmetry_equiv_pos_site_id
 _symmetry_equiv_pos_as_xyz
 1  'x, y, z'
loop_
 _atom_site_type_symbol
 _atom_site_label
 _atom_site_symmetry_multiplicity
 _atom_site_fract_x
 _atom_site_fract_y
 _atom_site_fract_z
 _atom_site_fract_occupancy
 Cu  Cu1  1  0.50000  0.50000  0.50000  1
 Cu  Cu2  1  0.50000  0.50000  0.00000  1
 Cu  Cu3  1  0.00000  0.00000  0.50000  1
 Mn  Mn1  1  0.50000  0.00000  0.25027  1
 Mn  Mn2  1  0.00000  0.50000  0.74973  1
 O  O1  1  0.24863  0.75137  0.50000  1
 O  O2  1  0.75137  0.24863  0.50000  1
 O  O3  1  0.74972  0.25028  0.00000  1
 O  O4  1  0.25028  0.74972  0.00000  1
 Se  Se1  1  0.16501  0.32906  0.75304  1
 Se  Se2  1  0.67094  0.83499  0.24696  1
 Se  Se3  1  0.32906  0.16501  0.24696  1
 Se  Se4  1  0.83499  0.67094  0.75304  1
 Sr  Sr1  1  0.09635  0.40630  0.25115  1
 Sr  Sr2  1  0.90365  0.59370  0.25115  1
 Sr  Sr3  1  0.59370  0.90365  0.74885  1
 Sr  Sr4  1  0.40630  0.09635  0.74885  1
