CIF file written using JARVIS-Tools package.
data_SrCaPbO4
_symmetry_space_group_name_H-M  'P2/m'
_cell_length_a       3.47221
_cell_length_b       6.03937
_cell_length_c       10.0322
_cell_angle_alpha    89.5029
_cell_angle_beta     90
_cell_angle_gamma    90

_symmetry_Int_Tables_number  10
_chemical_formula_structural  SrCaPbO4
_chemical_formula_sum  Sr2Ca2Pb2O8
_cell_volume  210.3664113810429
_cell_formula_units_Z  2
loop_
  _symmetry_equiv_pos_site_id
 _symmetry_equiv_pos_as_xyz
 1  'x, y, z'
loop_
 _atom_site_type_symbol
 _atom_site_label
 _atom_site_symmetry_multiplicity
 _atom_site_fract_x
 _atom_site_fract_y
 _atom_site_fract_z
 _atom_site_fract_occupancy
 Ca  Ca1  1  0.50000  0.92746  0.32278  1
 Ca  Ca2  1  0.50000  0.07254  0.67722  1
 O  O1  1  0.00000  0.12149  0.20364  1
 O  O2  1  0.00000  0.87851  0.79636  1
 O  O3  1  0.00000  0.65205  0.30627  1
 O  O4  1  0.00000  0.34795  0.69373  1
 O  O5  1  0.50000  0.26229  0.44925  1
 O  O6  1  0.50000  0.73771  0.55075  1
 O  O7  1  0.50000  0.76649  0.04700  1
 O  O8  1  0.50000  0.23351  0.95300  1
 Pb  Pb1  1  0.00000  0.50000  0.50000  1
 Pb  Pb2  1  0.00000  0.00000  0.00000  1
 Sr  Sr1  1  0.50000  0.42442  0.18485  1
 Sr  Sr2  1  0.50000  0.57558  0.81515  1
