CIF file written using JARVIS-Tools package.
data_Sr3ZrTi2O9
_symmetry_space_group_name_H-M  'C2/m'
_cell_length_a       5.66403
_cell_length_b       5.66403
_cell_length_c       12.5676
_cell_angle_alpha    77.2082
_cell_angle_beta     77.2082
_cell_angle_gamma    90.8663

_symmetry_Int_Tables_number  12
_chemical_formula_structural  Sr3ZrTi2O9
_chemical_formula_sum  Sr6Zr2Ti4O8
_cell_volume  382.5457429191641
_cell_formula_units_Z  2
loop_
  _symmetry_equiv_pos_site_id
 _symmetry_equiv_pos_as_xyz
 1  'x, y, z'
loop_
 _atom_site_type_symbol
 _atom_site_label
 _atom_site_symmetry_multiplicity
 _atom_site_fract_x
 _atom_site_fract_y
 _atom_site_fract_z
 _atom_site_fract_occupancy
 O  O1  1  0.59309  0.07838  0.33131  1
 O  O2  1  0.61851  0.61851  0.83995  1
 O  O3  1  0.29011  0.29011  0.50599  1
 O  O4  1  0.07838  0.59309  0.33131  1
 O  O5  1  0.38149  0.38149  0.16005  1
 O  O6  1  0.04446  0.04446  0.83654  1
 O  O7  1  0.70989  0.70989  0.49401  1
 O  O8  1  0.26095  0.26095  0.97712  1
 O  O9  1  0.95554  0.95554  0.16346  1
 O  O10  1  0.60725  0.60725  0.30169  1
 O  O11  1  0.73905  0.73905  0.02288  1
 O  O12  1  0.39275  0.39275  0.69831  1
 O  O13  1  0.06309  0.06309  0.35906  1
 O  O14  1  0.24962  0.75038  0.00000  1
 O  O15  1  0.40691  0.92162  0.66869  1
 O  O16  1  0.92162  0.40691  0.66869  1
 O  O17  1  0.75038  0.24962  0.00000  1
 O  O18  1  0.93691  0.93691  0.64094  1
 Sr  Sr1  1  0.92059  0.41942  0.16061  1
 Sr  Sr2  1  0.24840  0.75160  0.50000  1
 Sr  Sr3  1  0.58058  0.07941  0.83939  1
 Sr  Sr4  1  0.75160  0.24840  0.50000  1
 Sr  Sr5  1  0.07941  0.58058  0.83939  1
 Sr  Sr6  1  0.41942  0.92059  0.16061  1
 Ti  Ti1  1  0.50000  0.50000  -0.00000  1
 Ti  Ti2  1  0.83469  0.83469  0.32887  1
 Ti  Ti3  1  0.16531  0.16531  0.67113  1
 Ti  Ti4  1  0.00000  0.00000  0.00000  1
 Zr  Zr1  1  0.66561  0.66561  0.66634  1
 Zr  Zr2  1  0.33439  0.33439  0.33366  1
