CIF file written using JARVIS-Tools package.
data_BeNbSe
_symmetry_space_group_name_H-M  'P4mm'
_cell_length_a       2.7819
_cell_length_b       2.7819
_cell_length_c       7.28358
_cell_angle_alpha    90
_cell_angle_beta     90
_cell_angle_gamma    90

_symmetry_Int_Tables_number  99
_chemical_formula_structural  BeNbSe
_chemical_formula_sum  BeNbSe
_cell_volume  56.36748345772567
_cell_formula_units_Z  1
loop_
  _symmetry_equiv_pos_site_id
 _symmetry_equiv_pos_as_xyz
 1  'x, y, z'
loop_
 _atom_site_type_symbol
 _atom_site_label
 _atom_site_symmetry_multiplicity
 _atom_site_fract_x
 _atom_site_fract_y
 _atom_site_fract_z
 _atom_site_fract_occupancy
 Be  Be1  1  0.00000  0.00000  0.33005  1
 Nb  Nb1  1  0.00000  0.00000  0.65864  1
 Se  Se1  1  0.00000  0.00000  0.03279  1
