CIF file written using JARVIS-Tools package.
data_Sr4Al6MoO16
_symmetry_space_group_name_H-M  'I-4m2'
_cell_length_a       8.23767
_cell_length_b       8.23767
_cell_length_c       8.23767
_cell_angle_alpha    110.012
_cell_angle_beta     110.012
_cell_angle_gamma    108.394

_symmetry_Int_Tables_number  119
_chemical_formula_structural  Sr4Al6MoO16
_chemical_formula_sum  Sr4Al6MoO6
_cell_volume  430.2066782136474
_cell_formula_units_Z  1
loop_
  _symmetry_equiv_pos_site_id
 _symmetry_equiv_pos_as_xyz
 1  'x, y, z'
loop_
 _atom_site_type_symbol
 _atom_site_label
 _atom_site_symmetry_multiplicity
 _atom_site_fract_x
 _atom_site_fract_y
 _atom_site_fract_z
 _atom_site_fract_occupancy
 Al  Al1  1  0.74759  0.49572  0.25188  1
 Al  Al2  1  0.25000  0.75000  0.50000  1
 Al  Al3  1  0.50428  0.75616  0.25188  1
 Al  Al4  1  0.75000  0.25000  0.50000  1
 Al  Al5  1  0.50428  0.25241  0.74812  1
 Al  Al6  1  0.24384  0.49572  0.74812  1
 Mo  Mo1  1  0.00000  0.00000  0.00000  1
 O  O1  1  0.10816  0.95464  0.84648  1
 O  O2  1  0.66670  0.00146  0.33476  1
 O  O3  1  0.30499  0.65121  0.65378  1
 O  O4  1  0.10816  0.26168  0.15352  1
 O  O5  1  0.34879  0.00257  0.65378  1
 O  O6  1  0.99854  0.33330  0.66524  1
 O  O7  1  0.66200  0.66200  0.32399  1
 O  O8  1  0.66200  0.33800  0.00000  1
 O  O9  1  0.99743  0.65121  0.34622  1
 O  O10  1  0.73832  0.89184  0.84648  1
 O  O11  1  0.66806  0.33330  0.33476  1
 O  O12  1  0.33800  0.33800  0.67601  1
 O  O13  1  0.66670  0.33194  0.66524  1
 O  O14  1  0.04536  0.89184  0.15352  1
 O  O15  1  0.33800  0.66200  0.00000  1
 O  O16  1  0.34879  0.69501  0.34622  1
 Sr  Sr1  1  0.49162  0.50838  0.50000  1
 Sr  Sr2  1  0.00838  0.50838  0.01675  1
 Sr  Sr3  1  0.00838  0.99162  0.50000  1
 Sr  Sr4  1  0.49162  0.99162  0.98325  1
