CIF file written using JARVIS-Tools package.
data_Na2FeO3
_symmetry_space_group_name_H-M  'P6_3/mcm'
_cell_length_a       5.18392
_cell_length_b       5.18391
_cell_length_c       10.6365
_cell_angle_alpha    90
_cell_angle_beta     90
_cell_angle_gamma    120

_symmetry_Int_Tables_number  193
_chemical_formula_structural  Na2FeO3
_chemical_formula_sum  Na8Fe4O2
_cell_volume  247.54056539298332
_cell_formula_units_Z  4
loop_
  _symmetry_equiv_pos_site_id
 _symmetry_equiv_pos_as_xyz
 1  'x, y, z'
loop_
 _atom_site_type_symbol
 _atom_site_label
 _atom_site_symmetry_multiplicity
 _atom_site_fract_x
 _atom_site_fract_y
 _atom_site_fract_z
 _atom_site_fract_occupancy
 Fe  Fe1  1  0.66667  0.33333  0.50000  1
 Fe  Fe2  1  0.33333  0.66667  0.50000  1
 Fe  Fe3  1  0.33333  0.66667  0.00000  1
 Fe  Fe4  1  0.66667  0.33333  0.00000  1
 Na  Na1  1  0.68179  0.68179  0.25000  1
 Na  Na2  1  0.68179  0.00000  0.75000  1
 Na  Na3  1  -0.00000  0.68179  0.75000  1
 Na  Na4  1  0.00000  0.00000  0.00000  1
 Na  Na5  1  0.00000  0.00000  0.50000  1
 Na  Na6  1  0.00000  0.31821  0.25000  1
 Na  Na7  1  0.31821  0.00000  0.25000  1
 Na  Na8  1  0.31821  0.31821  0.75000  1
 O  O1  1  0.37836  0.37836  0.09841  1
 O  O2  1  0.62164  0.00000  0.40159  1
 O  O3  1  0.62164  0.00000  0.09841  1
 O  O4  1  0.37836  0.00000  0.90159  1
 O  O5  1  0.37836  0.00000  0.59841  1
 O  O6  1  0.00000  0.37836  0.59841  1
 O  O7  1  -0.00000  0.62164  0.40159  1
 O  O8  1  -0.00000  0.62164  0.09841  1
 O  O9  1  0.62164  0.62164  0.59841  1
 O  O10  1  0.37836  0.37836  0.40159  1
 O  O11  1  0.00000  0.37836  0.90159  1
 O  O12  1  0.62164  0.62164  0.90159  1
