CIF file written using JARVIS-Tools package.
data_Sr2NbCoO6
_symmetry_space_group_name_H-M  'Fm-3m'
_cell_length_a       5.53465
_cell_length_b       5.53463
_cell_length_c       9.58646
_cell_angle_alpha    73.2157
_cell_angle_beta     73.2161
_cell_angle_gamma    59.9962

_symmetry_Int_Tables_number  225
_chemical_formula_structural  Sr2NbCoO6
_chemical_formula_sum  Sr4Nb2Co2O2
_cell_volume  239.7502459858918
_cell_formula_units_Z  2
loop_
  _symmetry_equiv_pos_site_id
 _symmetry_equiv_pos_as_xyz
 1  'x, y, z'
loop_
 _atom_site_type_symbol
 _atom_site_label
 _atom_site_symmetry_multiplicity
 _atom_site_fract_x
 _atom_site_fract_y
 _atom_site_fract_z
 _atom_site_fract_occupancy
 Co  Co1  1  0.37500  0.37500  0.87500  1
 Co  Co2  1  0.87500  0.87500  0.37500  1
 Nb  Nb1  1  0.62501  0.62501  0.12500  1
 Nb  Nb2  1  0.12499  0.12499  0.62500  1
 O  O1  1  0.00849  0.49720  -0.00280  1
 O  O2  1  0.75282  0.75282  0.25283  1
 O  O3  1  0.24154  0.75282  0.25282  1
 O  O4  1  0.49721  0.49721  0.99716  1
 O  O5  1  0.99718  0.99718  0.49717  1
 O  O6  1  0.25279  0.25279  0.75284  1
 O  O7  1  -0.00282  0.50847  0.49718  1
 O  O8  1  0.74151  0.25280  0.75280  1
 O  O9  1  0.25280  0.74151  0.75281  1
 O  O10  1  0.49720  0.00849  -0.00281  1
 O  O11  1  0.50846  -0.00282  0.49718  1
 O  O12  1  0.75282  0.24153  0.25282  1
 Sr  Sr1  1  0.74999  0.74999  0.75000  1
 Sr  Sr2  1  0.25001  0.25001  0.25000  1
 Sr  Sr3  1  0.49999  0.49999  0.50000  1
 Sr  Sr4  1  0.00001  0.00001  0.00000  1
