CIF file written using JARVIS-Tools package.
data_Re2MoSe4
_symmetry_space_group_name_H-M  'P1'
_cell_length_a       6.72671
_cell_length_b       6.72457
_cell_length_c       6.7315
_cell_angle_alpha    93.3772
_cell_angle_beta     93.7679
_cell_angle_gamma    93.7459

_symmetry_Int_Tables_number  1
_chemical_formula_structural  Re2MoSe4
_chemical_formula_sum  Re4Mo2Se8
_cell_volume  302.57491475600733
_cell_formula_units_Z  2
loop_
  _symmetry_equiv_pos_site_id
 _symmetry_equiv_pos_as_xyz
 1  'x, y, z'
loop_
 _atom_site_type_symbol
 _atom_site_label
 _atom_site_symmetry_multiplicity
 _atom_site_fract_x
 _atom_site_fract_y
 _atom_site_fract_z
 _atom_site_fract_occupancy
 Mo  Mo1  1  0.23467  0.54329  0.41251  1
 Mo  Mo2  1  0.41271  0.23560  0.54778  1
 Re  Re1  1  0.54630  0.41358  0.23784  1
 Re  Re2  1  0.76375  0.45520  0.58759  1
 Re  Re3  1  0.58463  0.76433  0.45263  1
 Re  Re4  1  0.45277  0.58691  0.76395  1
 Se  Se1  1  0.36970  0.73291  0.12239  1
 Se  Se2  1  0.12335  0.36922  0.73814  1
 Se  Se3  1  0.73960  0.12656  0.36910  1
 Se  Se4  1  0.63063  0.26915  0.87842  1
 Se  Se5  1  0.87206  0.63142  0.26675  1
 Se  Se6  1  0.26787  0.87337  0.62801  1
 Se  Se7  1  0.21403  0.20804  0.20742  1
 Se  Se8  1  0.78793  0.79042  0.78748  1
