CIF file written using JARVIS-Tools package.
data_Rb4TlSbCl12
_symmetry_space_group_name_H-M  'P4/mmm'
_cell_length_a       7.20702
_cell_length_b       7.20702
_cell_length_c       10.0038
_cell_angle_alpha    90
_cell_angle_beta     90
_cell_angle_gamma    90

_symmetry_Int_Tables_number  123
_chemical_formula_structural  Rb4TlSbCl12
_chemical_formula_sum  Rb4TlSbCl2
_cell_volume  519.605305741819
_cell_formula_units_Z  1
loop_
  _symmetry_equiv_pos_site_id
 _symmetry_equiv_pos_as_xyz
 1  'x, y, z'
loop_
 _atom_site_type_symbol
 _atom_site_label
 _atom_site_symmetry_multiplicity
 _atom_site_fract_x
 _atom_site_fract_y
 _atom_site_fract_z
 _atom_site_fract_occupancy
 Cl  Cl1  1  0.50000  0.50000  0.74202  1
 Cl  Cl2  1  0.00000  0.00000  0.73513  1
 Cl  Cl3  1  0.50000  0.50000  0.25798  1
 Cl  Cl4  1  0.26164  0.73836  0.50000  1
 Cl  Cl5  1  0.25615  0.25615  0.00000  1
 Cl  Cl6  1  0.73836  0.73836  0.50000  1
 Cl  Cl7  1  0.25615  0.74385  0.00000  1
 Cl  Cl8  1  0.00000  0.00000  0.26487  1
 Cl  Cl9  1  0.74385  0.25615  0.00000  1
 Cl  Cl10  1  0.26164  0.26164  0.50000  1
 Cl  Cl11  1  0.74385  0.74385  0.00000  1
 Cl  Cl12  1  0.73836  0.26164  0.50000  1
 Rb  Rb1  1  0.00000  0.50000  0.77368  1
 Rb  Rb2  1  0.50000  0.00000  0.22632  1
 Rb  Rb3  1  0.00000  0.50000  0.22632  1
 Rb  Rb4  1  0.50000  0.00000  0.77368  1
 Sb  Sb1  1  0.50000  0.50000  0.50000  1
 Tl  Tl1  1  0.00000  0.00000  0.00000  1
