CIF file written using JARVIS-Tools package.
data_BeSiP
_symmetry_space_group_name_H-M  'Pm'
_cell_length_a       5.12576
_cell_length_b       3.41332
_cell_length_c       2.78721
_cell_angle_alpha    90
_cell_angle_beta     90
_cell_angle_gamma    89.7452

_symmetry_Int_Tables_number  6
_chemical_formula_structural  BeSiP
_chemical_formula_sum  BeSiP
_cell_volume  48.76428101737331
_cell_formula_units_Z  1
loop_
  _symmetry_equiv_pos_site_id
 _symmetry_equiv_pos_as_xyz
 1  'x, y, z'
loop_
 _atom_site_type_symbol
 _atom_site_label
 _atom_site_symmetry_multiplicity
 _atom_site_fract_x
 _atom_site_fract_y
 _atom_site_fract_z
 _atom_site_fract_occupancy
 Be  Be1  1  0.37691  -0.08267  0.00000  1
 P  P1  1  0.12897  0.41894  0.00000  1
 Si  Si1  1  -0.19403  -0.07973  0.00000  1
