CIF file written using JARVIS-Tools package.
data_Co2SbO6
_symmetry_space_group_name_H-M  'Cmce'
_cell_length_a       5.13166
_cell_length_b       5.13167
_cell_length_c       8.88989
_cell_angle_alpha    90.0002
_cell_angle_beta     90.0002
_cell_angle_gamma    120.303

_symmetry_Int_Tables_number  64
_chemical_formula_structural  Co2SbO6
_chemical_formula_sum  Co4Sb2O2
_cell_volume  202.1199223839993
_cell_formula_units_Z  2
loop_
  _symmetry_equiv_pos_site_id
 _symmetry_equiv_pos_as_xyz
 1  'x, y, z'
loop_
 _atom_site_type_symbol
 _atom_site_label
 _atom_site_symmetry_multiplicity
 _atom_site_fract_x
 _atom_site_fract_y
 _atom_site_fract_z
 _atom_site_fract_occupancy
 Co  Co1  1  0.83322  0.16678  0.50000  1
 Co  Co2  1  0.33323  0.66678  0.00000  1
 Co  Co3  1  0.66678  0.33323  0.00000  1
 Co  Co4  1  0.16678  0.83322  0.50000  1
 O  O1  1  0.64694  0.64694  0.10839  1
 O  O2  1  0.85307  0.85307  0.60839  1
 O  O3  1  0.99938  0.64806  0.89342  1
 O  O4  1  0.50062  0.85194  0.39342  1
 O  O5  1  0.14693  0.14693  0.39161  1
 O  O6  1  0.64806  0.99938  0.89342  1
 O  O7  1  0.14806  0.49938  0.60658  1
 O  O8  1  0.35307  0.35307  0.89161  1
 O  O9  1  0.49938  0.14806  0.60658  1
 O  O10  1  0.85194  0.50062  0.39342  1
 O  O11  1  0.00062  0.35195  0.10658  1
 O  O12  1  0.35195  0.00062  0.10658  1
 Sb  Sb1  1  0.00001  0.00001  0.00000  1
 Sb  Sb2  1  0.50000  0.50000  0.50000  1
