CIF file written using JARVIS-Tools package.
data_H6C9SO
_symmetry_space_group_name_H-M  'P1'
_cell_length_a       4.03037
_cell_length_b       6.21284
_cell_length_c       7.25275
_cell_angle_alpha    82.0344
_cell_angle_beta     78.237
_cell_angle_gamma    78.228

_symmetry_Int_Tables_number  1
_chemical_formula_structural  H6C9SO
_chemical_formula_sum  H6C9SO
_cell_volume  173.1619460236713
_cell_formula_units_Z  1
loop_
  _symmetry_equiv_pos_site_id
 _symmetry_equiv_pos_as_xyz
 1  'x, y, z'
loop_
 _atom_site_type_symbol
 _atom_site_label
 _atom_site_symmetry_multiplicity
 _atom_site_fract_x
 _atom_site_fract_y
 _atom_site_fract_z
 _atom_site_fract_occupancy
 C  C1  1  0.48392  0.84549  0.10343  1
 C  C2  1  0.25886  0.91333  0.28012  1
 C  C3  1  0.68991  0.00865  0.98244  1
 C  C4  1  0.98115  0.81695  0.60325  1
 C  C5  1  0.81624  0.03819  0.61639  1
 C  C6  1  0.18757  0.75479  0.43459  1
 C  C7  1  0.10613  0.13689  0.29812  1
 C  C8  1  0.87739  0.19655  0.46167  1
 C  C9  1  0.58323  0.11023  0.79289  1
 H  H1  1  0.75521  0.36894  0.47438  1
 H  H2  1  0.15886  0.26448  0.18205  1
 H  H3  1  0.94032  0.69193  0.72345  1
 H  H4  1  0.30299  0.58146  0.42185  1
 H  H5  1  0.95788  0.92163  0.95249  1
 H  H6  1  0.68445  0.15000  0.05963  1
 O  O1  1  0.32686  0.25577  0.78848  1
 S  S1  1  0.52168  0.59760  0.03708  1
