CIF file written using JARVIS-Tools package.
data_RbBa3Ga5Se10Cl2
_symmetry_space_group_name_H-M  'P1'
_cell_length_a       8.69023
_cell_length_b       8.76179
_cell_length_c       9.9576
_cell_angle_alpha    115.953
_cell_angle_beta     115.104
_cell_angle_gamma    89.97

_symmetry_Int_Tables_number  1
_chemical_formula_structural  RbBa3Ga5Se10Cl2
_chemical_formula_sum  RbBa3Ga5Se0Cl2
_cell_volume  601.1622790044527
_cell_formula_units_Z  1
loop_
  _symmetry_equiv_pos_site_id
 _symmetry_equiv_pos_as_xyz
 1  'x, y, z'
loop_
 _atom_site_type_symbol
 _atom_site_label
 _atom_site_symmetry_multiplicity
 _atom_site_fract_x
 _atom_site_fract_y
 _atom_site_fract_z
 _atom_site_fract_occupancy
 Ba  Ba1  1  0.74848  0.87447  0.23028  1
 Ba  Ba2  1  0.11956  0.50893  0.77351  1
 Ba  Ba3  1  0.63731  0.23665  0.77006  1
 Cl  Cl1  1  0.75561  0.24416  0.51212  1
 Cl  Cl2  1  0.50031  0.50752  0.99288  1
 Ga  Ga1  1  0.00690  0.00222  0.00112  1
 Ga  Ga2  1  0.07110  0.47452  0.33764  1
 Ga  Ga3  1  0.25776  0.85271  0.32086  1
 Ga  Ga4  1  0.14518  0.93549  0.67029  1
 Ga  Ga5  1  0.52775  0.73522  0.66481  1
 Rb  Rb1  1  0.48909  0.35315  0.22989  1
 Se  Se1  1  0.80773  0.71645  0.85547  1
 Se  Se2  1  0.04233  0.14489  0.85120  1
 Se  Se3  1  0.28944  0.93636  0.13108  1
 Se  Se4  1  0.16783  0.07538  0.51177  1
 Se  Se5  1  0.55081  0.82309  0.47044  1
 Se  Se6  1  0.93174  0.65858  0.49644  1
 Se  Se7  1  0.34678  0.44783  0.52901  1
 Se  Se8  1  0.86532  0.19278  0.15338  1
 Se  Se9  1  0.44339  0.95353  0.85810  1
 Se  Se10  1  0.04558  0.57607  0.13966  1
