CIF file written using JARVIS-Tools package.
data_AsNO
_symmetry_space_group_name_H-M  'I2_12_12_1'
_cell_length_a       5.07059
_cell_length_b       5.07059
_cell_length_c       5.07059
_cell_angle_alpha    123.543
_cell_angle_beta     119.652
_cell_angle_gamma    87.289

_symmetry_Int_Tables_number  24
_chemical_formula_structural  AsNO
_chemical_formula_sum  As2N2O2
_cell_volume  89.71190043637553
_cell_formula_units_Z  2
loop_
  _symmetry_equiv_pos_site_id
 _symmetry_equiv_pos_as_xyz
 1  'x, y, z'
loop_
 _atom_site_type_symbol
 _atom_site_label
 _atom_site_symmetry_multiplicity
 _atom_site_fract_x
 _atom_site_fract_y
 _atom_site_fract_z
 _atom_site_fract_occupancy
 As  As1  1  0.60704  0.35704  0.25000  1
 As  As2  1  0.89296  0.14296  0.75000  1
 N  N1  1  0.25000  0.05386  0.80385  1
 N  N2  1  0.75000  0.44614  0.69614  1
 O  O1  1  0.58831  0.75000  0.33831  1
 O  O2  1  0.91169  0.25000  0.16169  1
