CIF file written using JARVIS-Tools package.
data_Rb3Ag9Sb4S12
_symmetry_space_group_name_H-M  'I-4'
_cell_length_a       9.73807
_cell_length_b       9.73806
_cell_length_c       9.73806
_cell_angle_alpha    111.642
_cell_angle_beta     111.642
_cell_angle_gamma    105.211

_symmetry_Int_Tables_number  82
_chemical_formula_structural  Rb3Ag9Sb4S12
_chemical_formula_sum  Rb3Ag9Sb4S2
_cell_volume  707.9609110182013
_cell_formula_units_Z  1
loop_
  _symmetry_equiv_pos_site_id
 _symmetry_equiv_pos_as_xyz
 1  'x, y, z'
loop_
 _atom_site_type_symbol
 _atom_site_label
 _atom_site_symmetry_multiplicity
 _atom_site_fract_x
 _atom_site_fract_y
 _atom_site_fract_z
 _atom_site_fract_occupancy
 Ag  Ag1  1  0.99527  0.16794  0.50800  1
 Ag  Ag2  1  0.15721  0.64388  0.14448  1
 Ag  Ag3  1  0.49940  0.01273  0.85552  1
 Ag  Ag4  1  0.25000  0.75000  0.50000  1
 Ag  Ag5  1  0.35612  0.50060  0.51333  1
 Ag  Ag6  1  0.98727  0.84279  0.48667  1
 Ag  Ag7  1  0.51273  0.00473  0.17266  1
 Ag  Ag8  1  0.83206  0.34006  0.82734  1
 Ag  Ag9  1  0.65994  0.48727  0.49200  1
 Rb  Rb1  1  0.00000  0.00000  0.00000  1
 Rb  Rb2  1  0.32669  0.32669  -0.00000  1
 Rb  Rb3  1  0.67331  0.67331  0.00000  1
 S  S1  1  0.66631  0.31734  0.97904  1
 S  S2  1  0.33831  0.68727  0.02096  1
 S  S3  1  0.57599  0.80292  0.68656  1
 S  S4  1  0.11636  0.88943  0.31344  1
 S  S5  1  0.88361  0.58964  0.79413  1
 S  S6  1  0.79551  0.08948  0.20587  1
 S  S7  1  0.41036  0.20449  0.29397  1
 S  S8  1  0.31273  0.33369  0.65103  1
 S  S9  1  0.11057  0.42401  0.22693  1
 S  S10  1  0.19708  0.88364  0.77307  1
 S  S11  1  0.68266  0.66169  0.34897  1
 S  S12  1  0.91052  0.11639  0.70603  1
 Sb  Sb1  1  0.11215  0.59990  0.73485  1
 Sb  Sb2  1  0.86504  0.37730  0.26515  1
 Sb  Sb3  1  0.40010  0.13496  0.51225  1
 Sb  Sb4  1  0.62270  0.88785  0.48775  1
