CIF file written using JARVIS-Tools package.
data_Nb4CrC2S4
_symmetry_space_group_name_H-M  'P2/m'
_cell_length_a       3.3024
_cell_length_b       5.75589
_cell_length_c       8.67033
_cell_angle_alpha    77.5932
_cell_angle_beta     90
_cell_angle_gamma    90

_symmetry_Int_Tables_number  10
_chemical_formula_structural  Nb4CrC2S4
_chemical_formula_sum  Nb4CrC2S4
_cell_volume  160.95901850848605
_cell_formula_units_Z  1
loop_
  _symmetry_equiv_pos_site_id
 _symmetry_equiv_pos_as_xyz
 1  'x, y, z'
loop_
 _atom_site_type_symbol
 _atom_site_label
 _atom_site_symmetry_multiplicity
 _atom_site_fract_x
 _atom_site_fract_y
 _atom_site_fract_z
 _atom_site_fract_occupancy
 C  C1  1  0.00000  0.50000  0.50000  1
 C  C2  1  0.50000  0.00000  0.50000  1
 Cr  Cr1  1  0.00000  0.00000  0.00000  1
 Nb  Nb1  1  0.50000  0.62308  0.63767  1
 Nb  Nb2  1  0.00000  0.12045  0.63598  1
 Nb  Nb3  1  0.50000  0.37692  0.36233  1
 Nb  Nb4  1  0.00000  0.87955  0.36402  1
 S  S1  1  0.50000  0.77299  0.15734  1
 S  S2  1  0.00000  0.27425  0.16254  1
 S  S3  1  0.50000  0.22701  0.84266  1
 S  S4  1  0.00000  0.72575  0.83746  1
