CIF file written using JARVIS-Tools package.
data_GaAg3S2
_symmetry_space_group_name_H-M  'R-3m'
_cell_length_a       5.64878
_cell_length_b       5.64878
_cell_length_c       5.64878
_cell_angle_alpha    67.6624
_cell_angle_beta     67.6624
_cell_angle_gamma    67.6624

_symmetry_Int_Tables_number  166
_chemical_formula_structural  GaAg3S2
_chemical_formula_sum  GaAg3S2
_cell_volume  148.24592120266732
_cell_formula_units_Z  1
loop_
  _symmetry_equiv_pos_site_id
 _symmetry_equiv_pos_as_xyz
 1  'x, y, z'
loop_
 _atom_site_type_symbol
 _atom_site_label
 _atom_site_symmetry_multiplicity
 _atom_site_fract_x
 _atom_site_fract_y
 _atom_site_fract_z
 _atom_site_fract_occupancy
 Ag  Ag1  1  0.00000  0.50000  0.00000  1
 Ag  Ag2  1  0.00000  0.00000  0.50000  1
 Ag  Ag3  1  0.50000  0.00000  0.00000  1
 Ga  Ga1  1  0.50000  0.50000  0.50000  1
 S  S1  1  0.71558  0.71558  0.71559  1
 S  S2  1  0.28442  0.28442  0.28442  1
