CIF file written using JARVIS-Tools package.
data_Nb3IrSe8
_symmetry_space_group_name_H-M  'C2/m'
_cell_length_a       6.93499
_cell_length_b       6.93499
_cell_length_c       8.76078
_cell_angle_alpha    53.8752
_cell_angle_beta     53.8752
_cell_angle_gamma    60.0622

_symmetry_Int_Tables_number  12
_chemical_formula_structural  Nb3IrSe8
_chemical_formula_sum  Nb3IrSe8
_cell_volume  267.3856218729607
_cell_formula_units_Z  1
loop_
  _symmetry_equiv_pos_site_id
 _symmetry_equiv_pos_as_xyz
 1  'x, y, z'
loop_
 _atom_site_type_symbol
 _atom_site_label
 _atom_site_symmetry_multiplicity
 _atom_site_fract_x
 _atom_site_fract_y
 _atom_site_fract_z
 _atom_site_fract_occupancy
 Ir  Ir1  1  0.00000  0.00000  0.00000  1
 Nb  Nb1  1  0.50000  0.50000  -0.00000  1
 Nb  Nb2  1  0.50000  0.00000  0.00000  1
 Nb  Nb3  1  -0.00000  0.50000  -0.00000  1
 Se  Se1  1  0.03216  0.03216  0.26222  1
 Se  Se2  1  0.53643  0.53643  0.26264  1
 Se  Se3  1  0.54569  0.03307  0.26046  1
 Se  Se4  1  0.03307  0.54569  0.26046  1
 Se  Se5  1  0.45431  0.96693  0.73954  1
 Se  Se6  1  0.96693  0.45431  0.73954  1
 Se  Se7  1  0.96784  0.96784  0.73778  1
 Se  Se8  1  0.46357  0.46357  0.73736  1
