CIF file written using JARVIS-Tools package.
data_H5C2NO
_symmetry_space_group_name_H-M  'P1'
_cell_length_a       4.21885
_cell_length_b       4.74845
_cell_length_c       7.19998
_cell_angle_alpha    84.7619
_cell_angle_beta     82.5883
_cell_angle_gamma    71.3951

_symmetry_Int_Tables_number  1
_chemical_formula_structural  H5C2NO
_chemical_formula_sum  H0C4N2O2
_cell_volume  135.36424192166766
_cell_formula_units_Z  2
loop_
  _symmetry_equiv_pos_site_id
 _symmetry_equiv_pos_as_xyz
 1  'x, y, z'
loop_
 _atom_site_type_symbol
 _atom_site_label
 _atom_site_symmetry_multiplicity
 _atom_site_fract_x
 _atom_site_fract_y
 _atom_site_fract_z
 _atom_site_fract_occupancy
 C  C1  1  0.22396  0.89964  0.34987  1
 C  C2  1  0.78935  0.80328  0.19971  1
 C  C3  1  0.70127  0.38456  0.75951  1
 C  C4  1  0.27661  0.13825  0.82935  1
 H  H1  1  0.68644  0.01648  0.63363  1
 H  H2  1  0.63000  0.47064  0.90178  1
 H  H3  1  0.56918  0.55623  0.65845  1
 H  H4  1  0.21309  0.23628  0.96788  1
 H  H5  1  0.72225  0.03628  0.14229  1
 H  H6  1  0.00496  0.58290  0.43797  1
 H  H7  1  0.95837  0.65990  0.09242  1
 H  H8  1  0.15682  0.12530  0.28075  1
 H  H9  1  0.30481  0.90959  0.48683  1
 H  H10  1  0.23096  0.92233  0.84104  1
 N  N1  1  0.61662  0.10903  0.76240  1
 N  N2  1  0.94173  0.79175  0.37284  1
 O  O1  1  0.04832  0.33863  0.70132  1
 O  O2  1  0.50283  0.70329  0.23365  1
