CIF file written using JARVIS-Tools package.
data_GaAgS
_symmetry_space_group_name_H-M  'Cmcm'
_cell_length_a       4.82818
_cell_length_b       4.82818
_cell_length_c       5.93432
_cell_angle_alpha    90
_cell_angle_beta     90
_cell_angle_gamma    108.33

_symmetry_Int_Tables_number  63
_chemical_formula_structural  GaAgS
_chemical_formula_sum  Ga2Ag2S2
_cell_volume  131.31717289528177
_cell_formula_units_Z  2
loop_
  _symmetry_equiv_pos_site_id
 _symmetry_equiv_pos_as_xyz
 1  'x, y, z'
loop_
 _atom_site_type_symbol
 _atom_site_label
 _atom_site_symmetry_multiplicity
 _atom_site_fract_x
 _atom_site_fract_y
 _atom_site_fract_z
 _atom_site_fract_occupancy
 Ag  Ag1  1  0.00000  0.00000  0.50000  1
 Ag  Ag2  1  0.00000  0.00000  0.00000  1
 Ga  Ga1  1  0.35158  0.64842  0.25000  1
 Ga  Ga2  1  0.64842  0.35158  0.75000  1
 S  S1  1  0.24644  0.75356  0.75000  1
 S  S2  1  0.75356  0.24644  0.25000  1
