CIF file written using JARVIS-Tools package.
data_Nb12ZnSe16
_symmetry_space_group_name_H-M  'P-1'
_cell_length_a       6.98705
_cell_length_b       10.1581
_cell_length_c       10.7417
_cell_angle_alpha    118.217
_cell_angle_beta     108.98
_cell_angle_gamma    90.0006

_symmetry_Int_Tables_number  2
_chemical_formula_structural  Nb12ZnSe16
_chemical_formula_sum  Nb2ZnSe6
_cell_volume  624.355059967925
_cell_formula_units_Z  1
loop_
  _symmetry_equiv_pos_site_id
 _symmetry_equiv_pos_as_xyz
 1  'x, y, z'
loop_
 _atom_site_type_symbol
 _atom_site_label
 _atom_site_symmetry_multiplicity
 _atom_site_fract_x
 _atom_site_fract_y
 _atom_site_fract_z
 _atom_site_fract_occupancy
 Nb  Nb1  1  0.67911  0.61973  0.10683  1
 Nb  Nb2  1  0.31408  0.48799  0.38066  1
 Nb  Nb3  1  0.17810  0.62008  0.10756  1
 Nb  Nb4  1  0.38305  0.89280  0.51342  1
 Nb  Nb5  1  0.81603  0.48649  0.37947  1
 Nb  Nb6  1  0.12028  0.10717  0.48797  1
 Nb  Nb7  1  0.87972  0.89283  0.51203  1
 Nb  Nb8  1  0.32089  0.38027  0.89317  1
 Nb  Nb9  1  0.61695  0.10720  0.48658  1
 Nb  Nb10  1  0.68592  0.51201  0.61934  1
 Nb  Nb11  1  0.18397  0.51351  0.62053  1
 Nb  Nb12  1  0.82190  0.37992  0.89244  1
 Se  Se1  1  0.65535  0.33869  0.05982  1
 Se  Se2  1  0.26381  0.93895  0.27837  1
 Se  Se3  1  0.04162  0.66711  0.33358  1
 Se  Se4  1  0.45669  0.72131  0.66192  1
 Se  Se5  1  0.95467  0.72164  0.66048  1
 Se  Se6  1  0.15506  0.33877  0.06061  1
 Se  Se7  1  0.76485  0.94057  0.27868  1
 Se  Se8  1  0.95838  0.33289  0.66642  1
 Se  Se9  1  0.54331  0.27869  0.33808  1
 Se  Se10  1  0.34465  0.66131  0.94018  1
 Se  Se11  1  0.84494  0.66123  0.93939  1
 Se  Se12  1  0.45840  0.33381  0.66694  1
 Se  Se13  1  0.23515  0.05943  0.72132  1
 Se  Se14  1  0.04533  0.27836  0.33952  1
 Se  Se15  1  0.73619  0.06105  0.72163  1
 Se  Se16  1  0.54160  0.66619  0.33306  1
 Zn  Zn1  1  0.00000  0.00000  0.00000  1
