CIF file written using JARVIS-Tools package.
data_H5C6SNO
_symmetry_space_group_name_H-M  'P1'
_cell_length_a       3.98259
_cell_length_b       8.15318
_cell_length_c       9.56086
_cell_angle_alpha    109.554
_cell_angle_beta     102.542
_cell_angle_gamma    93.3081

_symmetry_Int_Tables_number  1
_chemical_formula_structural  H5C6SNO
_chemical_formula_sum  H0C2S2N2O2
_cell_volume  282.67873026988116
_cell_formula_units_Z  2
loop_
  _symmetry_equiv_pos_site_id
 _symmetry_equiv_pos_as_xyz
 1  'x, y, z'
loop_
 _atom_site_type_symbol
 _atom_site_label
 _atom_site_symmetry_multiplicity
 _atom_site_fract_x
 _atom_site_fract_y
 _atom_site_fract_z
 _atom_site_fract_occupancy
 C  C1  1  0.60760  0.70807  0.80543  1
 C  C2  1  0.68949  0.79384  0.69752  1
 C  C3  1  0.26334  0.22284  0.05657  1
 C  C4  1  0.76334  0.72284  0.55657  1
 C  C5  1  0.23089  0.33791  0.97253  1
 C  C6  1  0.18949  0.29384  0.19752  1
 C  C7  1  0.73089  0.83791  0.47253  1
 C  C8  1  0.13592  0.49648  0.05135  1
 C  C9  1  0.63592  -0.00352  0.55135  1
 C  C10  1  0.10760  0.20807  0.30543  1
 C  C11  1  0.50905  0.14043  0.50403  1
 C  C12  1  0.00906  0.64043  0.00403  1
 H  H1  1  0.57926  0.80919  0.91043  1
 H  H2  1  0.79744  0.46684  0.78322  1
 H  H3  1  0.85469  0.12455  0.24894  1
 H  H4  1  0.35469  0.62455  0.74894  1
 H  H5  1  0.82365  0.58939  0.51290  1
 H  H6  1  0.32365  0.08938  0.01290  1
 H  H7  1  0.76992  0.80490  0.35755  1
 H  H8  1  0.26992  0.30490  0.85755  1
 H  H9  1  0.07925  0.30919  0.41043  1
 H  H10  1  0.29744  0.96684  0.28322  1
 N  N1  1  0.84812  0.59684  0.85314  1
 N  N2  1  0.34812  0.09684  0.35314  1
 O  O1  1  0.02519  0.79157  0.10068  1
 O  O2  1  0.52518  0.29157  0.60068  1
 S  S1  1  0.09642  0.50450  0.22963  1
 S  S2  1  0.59642  0.00450  0.72963  1
