CIF file written using JARVIS-Tools package.
data_H11C13N
_symmetry_space_group_name_H-M  'P1'
_cell_length_a       5.06999
_cell_length_b       8.25454
_cell_length_c       11.5976
_cell_angle_alpha    75.0223
_cell_angle_beta     73.9861
_cell_angle_gamma    73.3726

_symmetry_Int_Tables_number  1
_chemical_formula_structural  H11C13N
_chemical_formula_sum  H22C26N2
_cell_volume  438.4488259101158
_cell_formula_units_Z  2
loop_
  _symmetry_equiv_pos_site_id
 _symmetry_equiv_pos_as_xyz
 1  'x, y, z'
loop_
 _atom_site_type_symbol
 _atom_site_label
 _atom_site_symmetry_multiplicity
 _atom_site_fract_x
 _atom_site_fract_y
 _atom_site_fract_z
 _atom_site_fract_occupancy
 C  C1  1  0.70582  0.46971  0.27920  1
 C  C2  1  0.01116  0.90234  0.31025  1
 C  C3  1  0.82571  0.59256  0.29621  1
 C  C4  1  0.35789  0.86266  0.12598  1
 C  C5  1  0.12633  0.81261  0.21280  1
 C  C6  1  0.46598  0.99639  0.13215  1
 C  C7  1  0.06634  0.62805  0.08504  1
 C  C8  1  0.95357  0.50249  0.06953  1
 C  C9  1  0.11821  0.03522  0.31807  1
 C  C10  1  0.77033  0.42116  0.16598  1
 C  C11  1  0.66317  0.28411  0.14063  1
 C  C12  1  0.43944  0.18845  0.79949  1
 C  C13  1  0.95459  0.46831  0.62432  1
 C  C14  1  0.65144  0.23752  0.58517  1
 C  C15  1  0.05891  0.60389  0.63029  1
 C  C16  1  0.72481  0.41687  0.71177  1
 C  C17  1  0.36214  0.02737  0.66782  1
 C  C18  1  0.60801  0.27853  0.70044  1
 C  C19  1  0.93710  0.69457  0.72695  1
 C  C20  1  0.31891  0.06516  0.78343  1
 C  C21  1  0.60311  0.50957  0.80721  1
 C  C22  1  0.70639  0.64389  0.81486  1
 C  C23  1  0.25481  0.89106  0.64164  1
 C  C24  1  0.52952  0.11677  0.56898  1
 C  C25  1  0.00821  0.67592  0.19937  1
 C  C26  1  0.34583  0.08727  0.22855  1
 H  H1  1  0.23702  0.63758  0.55943  1
 H  H2  1  0.06123  0.39891  0.54994  1
 H  H3  1  0.46470  0.79248  0.05223  1
 H  H4  1  0.00160  0.46917  0.97972  1
 H  H5  1  0.77235  0.62489  0.38660  1
 H  H6  1  0.02210  0.10420  0.39324  1
 H  H7  1  0.56080  0.41119  0.35595  1
 H  H8  1  0.29285  0.31626  0.27641  1
 H  H9  1  0.59065  0.33362  0.05345  1
 H  H10  1  0.84352  0.17359  0.12532  1
 H  H11  1  0.19544  0.69338  0.00538  1
 H  H12  1  0.64732  0.02734  0.06224  1
 H  H13  1  0.55986  0.09311  0.47722  1
 H  H14  1  0.40048  0.21366  0.89124  1
 H  H15  1  0.60689  0.71450  0.88896  1
 H  H16  1  0.41824  0.47929  0.87477  1
 H  H17  1  0.19137  -0.00249  0.86294  1
 H  H18  1  0.88629  0.92066  0.77891  1
 H  H19  1  0.18290  0.94107  0.55454  1
 H  H20  1  0.43542  0.78065  0.62598  1
 H  H21  1  0.77566  0.30660  0.50587  1
 H  H22  1  0.82983  0.87047  0.38012  1
 N  N1  1  0.03819  0.82742  0.73966  1
 N  N2  1  0.44652  0.22163  0.23946  1
