CIF file written using JARVIS-Tools package.
data_SnH12C7O4
_symmetry_space_group_name_H-M  'P1'
_cell_length_a       5.01448
_cell_length_b       5.75368
_cell_length_c       7.85577
_cell_angle_alpha    76.9395
_cell_angle_beta     84.9594
_cell_angle_gamma    87.4028

_symmetry_Int_Tables_number  1
_chemical_formula_structural  SnH12C7O4
_chemical_formula_sum  SnH2C7O4
_cell_volume  219.8600468070919
_cell_formula_units_Z  1
loop_
  _symmetry_equiv_pos_site_id
 _symmetry_equiv_pos_as_xyz
 1  'x, y, z'
loop_
 _atom_site_type_symbol
 _atom_site_label
 _atom_site_symmetry_multiplicity
 _atom_site_fract_x
 _atom_site_fract_y
 _atom_site_fract_z
 _atom_site_fract_occupancy
 C  C1  1  0.50128  0.52136  0.97418  1
 C  C2  1  -0.04362  0.58827  0.57435  1
 C  C3  1  0.52392  0.07104  0.54361  1
 C  C4  1  0.67444  0.14071  0.36346  1
 C  C5  1  0.49998  0.14558  0.21242  1
 C  C6  1  0.35771  0.39022  0.14458  1
 C  C7  1  0.08696  0.00058  -0.05511  1
 H  H1  1  0.84488  0.01386  0.36206  1
 H  H2  1  0.36118  0.50090  0.24199  1
 H  H3  1  0.14828  0.36986  0.12312  1
 H  H4  1  0.76659  0.31407  0.35297  1
 H  H5  1  0.74226  0.58444  0.55742  1
 H  H6  1  0.29980  0.03983  -0.07979  1
 H  H7  1  0.96633  0.16613  0.92161  1
 H  H8  1  0.03968  0.89359  0.07744  1
 H  H9  1  0.03359  0.40797  0.62681  1
 H  H10  1  0.07054  0.66653  0.45086  1
 H  H11  1  0.34761  0.00948  0.25628  1
 H  H12  1  0.62254  0.09424  0.10374  1
 O  O1  1  0.65424  0.04097  0.68048  1
 O  O2  1  0.38191  0.57491  0.83356  1
 O  O3  1  0.27202  0.04590  0.55000  1
 O  O4  1  0.74913  0.56440  0.97953  1
 Sn  Sn1  1  0.00421  0.79905  0.76090  1
