CIF file written using JARVIS-Tools package.
data_AuS2
_symmetry_space_group_name_H-M  'P2/m'
_cell_length_a       5.64847
_cell_length_b       3.09191
_cell_length_c       4.16589
_cell_angle_alpha    90
_cell_angle_beta     113.606
_cell_angle_gamma    90

_symmetry_Int_Tables_number  10
_chemical_formula_structural  AuS2
_chemical_formula_sum  AuS2
_cell_volume  66.66747041721906
_cell_formula_units_Z  1
loop_
  _symmetry_equiv_pos_site_id
 _symmetry_equiv_pos_as_xyz
 1  'x, y, z'
loop_
 _atom_site_type_symbol
 _atom_site_label
 _atom_site_symmetry_multiplicity
 _atom_site_fract_x
 _atom_site_fract_y
 _atom_site_fract_z
 _atom_site_fract_occupancy
 Au  Au1  1  0.46665  0.00000  0.13334  1
 S  S1  1  -0.19145  0.00000  -0.31128  1
 S  S2  1  0.12479  0.00000  0.57794  1
