CIF file written using JARVIS-Tools package.
data_MnCdCu4Sn2Se8
_symmetry_space_group_name_H-M  'C2'
_cell_length_a       7.09542
_cell_length_b       7.09542
_cell_length_c       11.6868
_cell_angle_alpha    65.7048
_cell_angle_beta     65.7048
_cell_angle_gamma    48.6326

_symmetry_Int_Tables_number  5
_chemical_formula_structural  MnCdCu4Sn2Se8
_chemical_formula_sum  MnCdCu4Sn2Se8
_cell_volume  393.9985017129375
_cell_formula_units_Z  1
loop_
  _symmetry_equiv_pos_site_id
 _symmetry_equiv_pos_as_xyz
 1  'x, y, z'
loop_
 _atom_site_type_symbol
 _atom_site_label
 _atom_site_symmetry_multiplicity
 _atom_site_fract_x
 _atom_site_fract_y
 _atom_site_fract_z
 _atom_site_fract_occupancy
 Cd  Cd1  1  0.00186  -0.00186  0.50000  1
 Cu  Cu1  1  0.74953  0.74734  0.87913  1
 Cu  Cu2  1  0.74950  0.75371  0.37081  1
 Cu  Cu3  1  0.25266  0.25047  0.12087  1
 Cu  Cu4  1  0.24629  0.25050  0.62919  1
 Mn  Mn1  1  0.99890  0.00110  -0.00000  1
 Se  Se1  1  0.60586  0.11158  0.69993  1
 Se  Se2  1  0.62247  0.10596  0.18562  1
 Se  Se3  1  0.10418  0.62762  0.94700  1
 Se  Se4  1  0.11347  0.60023  0.44385  1
 Se  Se5  1  0.37238  0.89582  0.05300  1
 Se  Se6  1  0.39977  0.88653  0.55615  1
 Se  Se7  1  0.88842  0.39414  0.30007  1
 Se  Se8  1  0.89404  0.37753  0.81438  1
 Sn  Sn1  1  0.50115  0.50046  0.75361  1
 Sn  Sn2  1  0.49954  0.49885  0.24639  1
