CIF file written using JARVIS-Tools package.
data_Lu2Fe4Si9
_symmetry_space_group_name_H-M  'P-3m1'
_cell_length_a       3.93927
_cell_length_b       3.93927
_cell_length_c       15.8317
_cell_angle_alpha    90
_cell_angle_beta     90
_cell_angle_gamma    120

_symmetry_Int_Tables_number  164
_chemical_formula_structural  Lu2Fe4Si9
_chemical_formula_sum  Lu2Fe4Si9
_cell_volume  212.7589651849796
_cell_formula_units_Z  1
loop_
  _symmetry_equiv_pos_site_id
 _symmetry_equiv_pos_as_xyz
 1  'x, y, z'
loop_
 _atom_site_type_symbol
 _atom_site_label
 _atom_site_symmetry_multiplicity
 _atom_site_fract_x
 _atom_site_fract_y
 _atom_site_fract_z
 _atom_site_fract_occupancy
 Fe  Fe1  1  0.33333  0.66667  0.59154  1
 Fe  Fe2  1  0.66667  0.33333  0.40846  1
 Fe  Fe3  1  0.66667  0.33333  0.10325  1
 Fe  Fe4  1  0.33333  0.66667  0.89675  1
 Lu  Lu1  1  0.33333  0.66667  0.24046  1
 Lu  Lu2  1  0.66667  0.33333  0.75954  1
 Si  Si1  1  0.33333  0.66667  0.43295  1
 Si  Si2  1  0.66667  0.33333  0.56705  1
 Si  Si3  1  0.66667  0.33333  0.95699  1
 Si  Si4  1  0.33333  0.66667  0.04301  1
 Si  Si5  1  0.00000  0.00000  0.65435  1
 Si  Si6  1  0.00000  0.00000  0.34565  1
 Si  Si7  1  0.00000  0.00000  0.13002  1
 Si  Si8  1  0.00000  0.00000  0.86998  1
 Si  Si9  1  0.00000  0.00000  0.50000  1
