CIF file written using JARVIS-Tools package.
data_SnH24C13O4
_symmetry_space_group_name_H-M  'P1'
_cell_length_a       5.11929
_cell_length_b       7.09559
_cell_length_c       10.4154
_cell_angle_alpha    75.4914
_cell_angle_beta     78.7625
_cell_angle_gamma    88.3506

_symmetry_Int_Tables_number  1
_chemical_formula_structural  SnH24C13O4
_chemical_formula_sum  SnH24C3O4
_cell_volume  359.1647713606248
_cell_formula_units_Z  1
loop_
  _symmetry_equiv_pos_site_id
 _symmetry_equiv_pos_as_xyz
 1  'x, y, z'
loop_
 _atom_site_type_symbol
 _atom_site_label
 _atom_site_symmetry_multiplicity
 _atom_site_fract_x
 _atom_site_fract_y
 _atom_site_fract_z
 _atom_site_fract_occupancy
 C  C1  1  0.18897  0.00581  0.20171  1
 C  C2  1  0.57583  0.25733  0.84450  1
 C  C3  1  0.34568  0.13135  0.44740  1
 C  C4  1  0.80938  0.32435  0.72521  1
 C  C5  1  0.51361  0.39187  0.54468  1
 C  C6  1  0.56472  0.19523  0.50965  1
 C  C7  1  0.73893  0.46468  0.59907  1
 C  C8  1  0.20282  0.86864  0.34135  1
 C  C9  1  0.40799  0.93786  0.40949  1
 C  C10  1  0.08046  0.89755  0.11558  1
 C  C11  1  0.71350  0.46953  0.16193  1
 C  C12  1  0.43811  0.42512  0.89359  1
 C  C13  1  0.04728  0.82887  0.78139  1
 H  H1  1  0.42567  0.17004  0.82127  1
 H  H2  1  0.68551  0.60624  0.62147  1
 H  H3  1  0.32008  0.24615  0.35754  1
 H  H4  1  0.15420  0.11696  0.51940  1
 H  H5  1  0.58588  0.08078  0.60073  1
 H  H6  1  0.91977  0.49210  0.51911  1
 H  H7  1  0.96188  0.39262  0.76058  1
 H  H8  1  0.60378  0.94987  0.34100  1
 H  H9  1  0.69939  0.32276  0.14730  1
 H  H10  1  0.51749  0.53397  0.17949  1
 H  H11  1  0.18867  0.94204  0.78058  1
 H  H12  1  0.13870  0.73559  0.71630  1
 H  H13  1  0.42624  0.82522  0.50168  1
 H  H14  1  0.81976  0.46779  0.24400  1
 H  H15  1  0.65278  0.16285  0.92994  1
 H  H16  1  0.00431  0.85276  0.40741  1
 H  H17  1  0.39306  0.05440  0.14977  1
 H  H18  1  0.06828  0.13367  0.21035  1
 H  H19  1  0.86450  0.89035  0.75038  1
 H  H20  1  0.48249  0.50108  0.45330  1
 H  H21  1  0.75710  0.20300  0.43868  1
 H  H22  1  0.90056  0.19437  0.69818  1
 H  H23  1  0.25791  0.72339  0.32675  1
 H  H24  1  0.32556  0.38235  0.61850  1
 O  O1  1  0.56725  0.57757  0.88527  1
 O  O2  1  0.22551  0.75929  0.07953  1
 O  O3  1  0.18427  0.40299  0.94264  1
 O  O4  1  0.85533  0.93020  0.08147  1
 Sn  Sn1  1  0.94190  0.64740  0.98130  1
