CIF file written using JARVIS-Tools package.
data_MgZn4O5
_symmetry_space_group_name_H-M  'P3m1'
_cell_length_a       3.27277
_cell_length_b       3.27277
_cell_length_c       26.2379
_cell_angle_alpha    90
_cell_angle_beta     90
_cell_angle_gamma    120

_symmetry_Int_Tables_number  156
_chemical_formula_structural  MgZn4O5
_chemical_formula_sum  Mg2Zn8O0
_cell_volume  243.3825372390981
_cell_formula_units_Z  2
loop_
  _symmetry_equiv_pos_site_id
 _symmetry_equiv_pos_as_xyz
 1  'x, y, z'
loop_
 _atom_site_type_symbol
 _atom_site_label
 _atom_site_symmetry_multiplicity
 _atom_site_fract_x
 _atom_site_fract_y
 _atom_site_fract_z
 _atom_site_fract_occupancy
 Mg  Mg1  1  0.33333  0.66667  0.27623  1
 Mg  Mg2  1  0.33333  0.66667  0.07767  1
 O  O1  1  0.33333  0.66667  0.59943  1
 O  O2  1  0.33333  0.66667  0.80035  1
 O  O3  1  0.00000  0.00000  0.09952  1
 O  O4  1  0.00000  0.00000  0.29810  1
 O  O5  1  0.00000  0.00000  0.49895  1
 O  O6  1  0.00000  0.00000  0.69989  1
 O  O7  1  0.00000  0.00000  0.90080  1
 O  O8  1  0.33333  0.66667  0.20051  1
 O  O9  1  0.33333  0.66667  0.00192  1
 O  O10  1  0.33333  0.66667  0.39849  1
 Zn  Zn1  1  0.00000  0.00000  0.97709  1
 Zn  Zn2  1  0.00000  0.00000  0.77626  1
 Zn  Zn3  1  0.00000  0.00000  0.57534  1
 Zn  Zn4  1  0.33333  0.66667  0.47488  1
 Zn  Zn5  1  0.00000  0.00000  0.17560  1
 Zn  Zn6  1  0.33333  0.66667  0.87673  1
 Zn  Zn7  1  0.33333  0.66667  0.67581  1
 Zn  Zn8  1  0.00000  0.00000  0.37429  1
