CIF file written using JARVIS-Tools package.
data_SnH12C7O6
_symmetry_space_group_name_H-M  'P1'
_cell_length_a       4.5327
_cell_length_b       6.10759
_cell_length_c       9.3551
_cell_angle_alpha    96.4988
_cell_angle_beta     101.58
_cell_angle_gamma    111.103

_symmetry_Int_Tables_number  1
_chemical_formula_structural  SnH12C7O6
_chemical_formula_sum  SnH2C7O6
_cell_volume  231.77437544633358
_cell_formula_units_Z  1
loop_
  _symmetry_equiv_pos_site_id
 _symmetry_equiv_pos_as_xyz
 1  'x, y, z'
loop_
 _atom_site_type_symbol
 _atom_site_label
 _atom_site_symmetry_multiplicity
 _atom_site_fract_x
 _atom_site_fract_y
 _atom_site_fract_z
 _atom_site_fract_occupancy
 C  C1  1  0.58407  0.73626  0.17027  1
 C  C2  1  0.77774  0.56545  0.60544  1
 C  C3  1  0.63200  0.27278  0.78556  1
 C  C4  1  0.88099  0.42258  0.71092  1
 C  C5  1  0.75201  0.86131  0.06198  1
 C  C6  1  0.57502  0.99208  0.97188  1
 C  C7  1  0.78637  0.13253  0.87872  1
 H  H1  1  0.96162  0.30501  0.64454  1
 H  H2  1  0.33711  0.86593  0.89956  1
 H  H3  1  0.51714  0.11484  0.04680  1
 H  H4  1  0.79509  0.72904  0.98795  1
 H  H5  1  0.10588  0.54705  0.79373  1
 H  H6  1  0.02413  0.25757  0.95405  1
 H  H7  1  0.41086  0.14953  0.70062  1
 H  H8  1  0.55783  0.38818  0.85739  1
 H  H9  1  0.77508  0.30271  0.24113  1
 H  H10  1  0.84138  0.00857  0.80321  1
 H  H11  1  0.66709  0.07452  0.40730  1
 H  H12  1  0.99681  0.98724  0.12809  1
 O  O1  1  0.73297  0.66895  0.27705  1
 O  O2  1  0.95633  0.30999  0.32115  1
 O  O3  1  0.47626  0.53028  0.56385  1
 O  O4  1  0.00077  0.72174  0.56256  1
 O  O5  1  0.28580  0.70454  0.16208  1
 O  O6  1  0.49210  0.00887  0.45749  1
 Sn  Sn1  1  0.22900  0.66307  0.39236  1
