CIF file written using JARVIS-Tools package.
data_LiCeMo2O8
_symmetry_space_group_name_H-M  'I-4'
_cell_length_a       6.75162
_cell_length_b       6.75162
_cell_length_c       6.75162
_cell_angle_alpha    134.243
_cell_angle_beta     134.243
_cell_angle_gamma    66.7086

_symmetry_Int_Tables_number  82
_chemical_formula_structural  LiCeMo2O8
_chemical_formula_sum  LiCeMo2O8
_cell_volume  155.42561809535556
_cell_formula_units_Z  1
loop_
  _symmetry_equiv_pos_site_id
 _symmetry_equiv_pos_as_xyz
 1  'x, y, z'
loop_
 _atom_site_type_symbol
 _atom_site_label
 _atom_site_symmetry_multiplicity
 _atom_site_fract_x
 _atom_site_fract_y
 _atom_site_fract_z
 _atom_site_fract_occupancy
 Ce  Ce1  1  0.50000  0.50000  0.00000  1
 Li  Li1  1  0.75000  0.25000  0.50000  1
 Mo  Mo1  1  0.25000  0.75000  0.50000  1
 Mo  Mo2  1  0.00000  0.00000  0.00000  1
 O  O1  1  0.40225  0.50829  0.58501  1
 O  O2  1  0.92327  0.81724  0.41499  1
 O  O3  1  0.06646  0.16084  0.39768  1
 O  O4  1  0.76316  0.66877  0.60232  1
 O  O5  1  0.83916  0.23684  0.90561  1
 O  O6  1  0.33123  0.93354  0.09439  1
 O  O7  1  0.18276  0.59775  0.10604  1
 O  O8  1  0.49171  0.07673  0.89396  1
