CIF file written using JARVIS-Tools package.
data_La3Si7Ni3
_symmetry_space_group_name_H-M  'Amm2'
_cell_length_a       13.2883
_cell_length_b       13.2883
_cell_length_c       4.24008
_cell_angle_alpha    90
_cell_angle_beta     90
_cell_angle_gamma    162.008

_symmetry_Int_Tables_number  38
_chemical_formula_structural  La3Si7Ni3
_chemical_formula_sum  La3Si7Ni3
_cell_volume  231.2705138451099
_cell_formula_units_Z  1
loop_
  _symmetry_equiv_pos_site_id
 _symmetry_equiv_pos_as_xyz
 1  'x, y, z'
loop_
 _atom_site_type_symbol
 _atom_site_label
 _atom_site_symmetry_multiplicity
 _atom_site_fract_x
 _atom_site_fract_y
 _atom_site_fract_z
 _atom_site_fract_occupancy
 La  La1  1  0.00068  0.99932  0.00000  1
 La  La2  1  0.68613  0.31387  0.50000  1
 La  La3  1  0.31847  0.68153  0.50000  1
 Ni  Ni1  1  0.86650  0.13350  0.00000  1
 Ni  Ni2  1  0.13263  0.86737  0.00000  1
 Ni  Ni3  1  0.45093  0.54907  0.50000  1
 Si  Si1  1  0.59360  0.40640  0.00000  1
 Si  Si2  1  0.40878  0.59122  0.00000  1
 Si  Si3  1  0.77696  0.22304  0.00000  1
 Si  Si4  1  0.22447  0.77553  0.00000  1
 Si  Si5  1  0.90864  0.09136  0.50000  1
 Si  Si6  1  0.09420  0.90580  0.50000  1
 Si  Si7  1  0.53802  0.46198  0.50000  1
