CIF file written using JARVIS-Tools package.
data_DyNiP
_symmetry_space_group_name_H-M  'P6_3/mmc'
_cell_length_a       3.90706
_cell_length_b       3.90706
_cell_length_c       15.2818
_cell_angle_alpha    90
_cell_angle_beta     90
_cell_angle_gamma    120

_symmetry_Int_Tables_number  194
_chemical_formula_structural  DyNiP
_chemical_formula_sum  Dy4Ni4P4
_cell_volume  202.02454650540145
_cell_formula_units_Z  4
loop_
  _symmetry_equiv_pos_site_id
 _symmetry_equiv_pos_as_xyz
 1  'x, y, z'
loop_
 _atom_site_type_symbol
 _atom_site_label
 _atom_site_symmetry_multiplicity
 _atom_site_fract_x
 _atom_site_fract_y
 _atom_site_fract_z
 _atom_site_fract_occupancy
 Dy  Dy1  1  0.00000  0.00000  0.50000  1
 Dy  Dy2  1  0.00000  0.00000  0.00000  1
 Dy  Dy3  1  0.00000  0.00000  0.25000  1
 Dy  Dy4  1  0.00000  0.00000  0.75000  1
 Ni  Ni1  1  0.33333  0.66667  0.37106  1
 Ni  Ni2  1  0.66667  0.33333  0.62894  1
 Ni  Ni3  1  0.66667  0.33333  0.87106  1
 Ni  Ni4  1  0.33333  0.66667  0.12894  1
 P  P1  1  0.33333  0.66667  0.87745  1
 P  P2  1  0.66667  0.33333  0.12255  1
 P  P3  1  0.66667  0.33333  0.37745  1
 P  P4  1  0.33333  0.66667  0.62255  1
