CIF file written using JARVIS-Tools package.
data_TiH16C9O4
_symmetry_space_group_name_H-M  'P1'
_cell_length_a       4.80733
_cell_length_b       7.23974
_cell_length_c       7.78453
_cell_angle_alpha    87.3906
_cell_angle_beta     102.681
_cell_angle_gamma    100.731

_symmetry_Int_Tables_number  1
_chemical_formula_structural  TiH16C9O4
_chemical_formula_sum  TiH6C9O4
_cell_volume  259.69675524174
_cell_formula_units_Z  1
loop_
  _symmetry_equiv_pos_site_id
 _symmetry_equiv_pos_as_xyz
 1  'x, y, z'
loop_
 _atom_site_type_symbol
 _atom_site_label
 _atom_site_symmetry_multiplicity
 _atom_site_fract_x
 _atom_site_fract_y
 _atom_site_fract_z
 _atom_site_fract_occupancy
 C  C1  1  0.44596  0.03448  0.65493  1
 C  C2  1  0.82578  0.55729  0.28523  1
 C  C3  1  0.36292  0.15720  0.49716  1
 C  C4  1  0.25435  0.35851  0.98787  1
 C  C5  1  0.49954  0.84760  0.59058  1
 C  C6  1  0.48821  0.68672  0.72587  1
 C  C7  1  0.19505  0.63981  0.78118  1
 C  C8  1  0.09094  0.42991  0.81731  1
 C  C9  1  0.56169  0.00698  0.13894  1
 H  H1  1  0.63503  0.98194  0.01924  1
 H  H2  1  0.93053  0.64473  0.18973  1
 H  H3  1  0.26944  0.00956  0.72642  1
 H  H4  1  0.62976  0.90332  0.23970  1
 H  H5  1  0.70930  0.87425  0.55089  1
 H  H6  1  0.33358  0.80244  0.47112  1
 H  H7  1  -0.03402  0.57698  0.41810  1
 H  H8  1  0.52597  0.56234  0.66391  1
 H  H9  1  0.66575  0.71857  0.84246  1
 H  H10  1  0.61447  0.59364  0.28501  1
 H  H11  1  0.02735  0.68145  0.67410  1
 H  H12  1  0.19841  0.72307  0.89680  1
 H  H13  1  0.11239  0.34560  0.70845  1
 H  H14  1  0.86176  0.40696  0.82368  1
 H  H15  1  0.32522  -0.00495  0.11024  1
 H  H16  1  0.64313  0.10713  0.74284  1
 O  O1  1  0.55315  0.23643  0.41582  1
 O  O2  1  0.09403  0.17148  0.44902  1
 O  O3  1  0.10629  0.30370  0.10849  1
 O  O4  1  0.51880  0.35255  0.01175  1
 Ti  Ti1  1  0.81775  0.26637  0.24537  1
