CIF file written using JARVIS-Tools package.
data_LaMn2BiO6
_symmetry_space_group_name_H-M  'Pmc2_1'
_cell_length_a       5.50825
_cell_length_b       5.60923
_cell_length_c       7.81563
_cell_angle_alpha    90
_cell_angle_beta     90
_cell_angle_gamma    89.9986

_symmetry_Int_Tables_number  26
_chemical_formula_structural  LaMn2BiO6
_chemical_formula_sum  La2Mn4Bi2O2
_cell_volume  241.47983293138017
_cell_formula_units_Z  2
loop_
  _symmetry_equiv_pos_site_id
 _symmetry_equiv_pos_as_xyz
 1  'x, y, z'
loop_
 _atom_site_type_symbol
 _atom_site_label
 _atom_site_symmetry_multiplicity
 _atom_site_fract_x
 _atom_site_fract_y
 _atom_site_fract_z
 _atom_site_fract_occupancy
 Bi  Bi1  1  0.50921  0.55049  0.25000  1
 Bi  Bi2  1  0.99072  0.05050  0.25000  1
 La  La1  1  0.49263  0.45939  0.75000  1
 La  La2  1  0.00745  0.95956  0.75000  1
 Mn  Mn1  1  0.00240  0.49963  0.00126  1
 Mn  Mn2  1  0.49759  -0.00041  0.49873  1
 Mn  Mn3  1  0.00240  0.49963  0.49874  1
 Mn  Mn4  1  0.49759  -0.00041  0.00127  1
 O  O1  1  0.28868  0.71003  0.54010  1
 O  O2  1  0.57103  0.01311  0.75000  1
 O  O3  1  0.70927  0.29110  0.04123  1
 O  O4  1  0.79073  0.79111  0.45876  1
 O  O5  1  0.21133  0.21004  0.95991  1
 O  O6  1  0.41455  0.97539  0.25000  1
 O  O7  1  0.28869  0.71003  0.95990  1
 O  O8  1  0.21133  0.21005  0.54009  1
 O  O9  1  0.70927  0.29110  0.45877  1
 O  O10  1  0.08542  0.47543  0.25000  1
 O  O11  1  0.79073  0.79111  0.04124  1
 O  O12  1  0.92897  0.51313  0.75000  1
