CIF file written using JARVIS-Tools package.
data_NaHC
_symmetry_space_group_name_H-M  'Amm2'
_cell_length_a       3.92046
_cell_length_b       3.92201
_cell_length_c       4.34692
_cell_angle_alpha    90
_cell_angle_beta     90
_cell_angle_gamma    102.215

_symmetry_Int_Tables_number  38
_chemical_formula_structural  NaHC
_chemical_formula_sum  NaHC
_cell_volume  65.32518599544562
_cell_formula_units_Z  1
loop_
  _symmetry_equiv_pos_site_id
 _symmetry_equiv_pos_as_xyz
 1  'x, y, z'
loop_
 _atom_site_type_symbol
 _atom_site_label
 _atom_site_symmetry_multiplicity
 _atom_site_fract_x
 _atom_site_fract_y
 _atom_site_fract_z
 _atom_site_fract_occupancy
 C  C1  1  0.11955  0.02027  0.00000  1
 H  H1  1  0.30359  -0.16382  0.00000  1
 Na  Na1  1  -0.27577  0.41558  0.00000  1
