CIF file written using JARVIS-Tools package.
data_NaHC2
_symmetry_space_group_name_H-M  'P4mm'
_cell_length_a       2.53055
_cell_length_b       2.53055
_cell_length_c       5.12965
_cell_angle_alpha    90
_cell_angle_beta     90
_cell_angle_gamma    90

_symmetry_Int_Tables_number  99
_chemical_formula_structural  NaHC2
_chemical_formula_sum  NaHC2
_cell_volume  32.84862015858188
_cell_formula_units_Z  1
loop_
  _symmetry_equiv_pos_site_id
 _symmetry_equiv_pos_as_xyz
 1  'x, y, z'
loop_
 _atom_site_type_symbol
 _atom_site_label
 _atom_site_symmetry_multiplicity
 _atom_site_fract_x
 _atom_site_fract_y
 _atom_site_fract_z
 _atom_site_fract_occupancy
 C  C1  1  0.00000  0.00000  0.16083  1
 C  C2  1  0.50000  0.50000  0.23017  1
 H  H1  1  0.00000  0.00000  0.92855  1
 Na  Na1  1  0.50000  0.50000  0.69045  1
