CIF file written using JARVIS-Tools package.
data_CaH4C4O4
_symmetry_space_group_name_H-M  'P1'
_cell_length_a       4.26615
_cell_length_b       7.25943
_cell_length_c       8.48469
_cell_angle_alpha    65.9523
_cell_angle_beta     89.2431
_cell_angle_gamma    91.4073

_symmetry_Int_Tables_number  1
_chemical_formula_structural  CaH4C4O4
_chemical_formula_sum  Ca2H8C8O8
_cell_volume  239.81252091722257
_cell_formula_units_Z  2
loop_
  _symmetry_equiv_pos_site_id
 _symmetry_equiv_pos_as_xyz
 1  'x, y, z'
loop_
 _atom_site_type_symbol
 _atom_site_label
 _atom_site_symmetry_multiplicity
 _atom_site_fract_x
 _atom_site_fract_y
 _atom_site_fract_z
 _atom_site_fract_occupancy
 C  C1  1  0.32580  0.50441  0.28252  1
 C  C2  1  0.20957  0.75899  0.97095  1
 C  C3  1  0.17649  0.87377  0.45684  1
 C  C4  1  0.17649  0.37376  0.45684  1
 C  C5  1  0.20957  0.25899  0.97095  1
 C  C6  1  0.32580  0.00441  0.28252  1
 C  C7  1  0.08619  0.11846  0.14933  1
 C  C8  1  0.08619  0.61846  0.14933  1
 Ca  Ca1  1  0.78691  0.57574  0.70257  1
 Ca  Ca2  1  0.78691  0.07574  0.70257  1
 H  H1  1  0.91429  0.01447  0.13174  1
 H  H2  1  0.46495  0.90974  0.23758  1
 H  H3  1  0.46495  0.40974  0.23758  1
 H  H4  1  0.49303  0.10779  0.30485  1
 H  H5  1  0.91429  0.51447  0.13174  1
 H  H6  1  0.94886  0.21263  0.19675  1
 H  H7  1  0.94886  0.71263  0.19675  1
 H  H8  1  0.49303  0.60779  0.30485  1
 O  O1  1  0.03745  0.76753  0.84435  1
 O  O2  1  0.31156  0.71435  0.55773  1
 O  O3  1  0.90988  0.92154  0.49838  1
 O  O4  1  0.90988  0.42154  0.49838  1
 O  O5  1  0.45341  0.36994  0.95032  1
 O  O6  1  0.45341  0.86994  0.95032  1
 O  O7  1  0.03745  0.26753  0.84435  1
 O  O8  1  0.31156  0.21435  0.55773  1
