CIF file written using JARVIS-Tools package.
data_K4BaNb5O15
_symmetry_space_group_name_H-M  'C2/m'
_cell_length_a       9.09393
_cell_length_b       9.09394
_cell_length_c       7.04632
_cell_angle_alpha    75.0176
_cell_angle_beta     75.0175
_cell_angle_gamma    36.8514

_symmetry_Int_Tables_number  12
_chemical_formula_structural  K4BaNb5O15
_chemical_formula_sum  K4BaNb5O5
_cell_volume  336.26196507448805
_cell_formula_units_Z  1
loop_
  _symmetry_equiv_pos_site_id
 _symmetry_equiv_pos_as_xyz
 1  'x, y, z'
loop_
 _atom_site_type_symbol
 _atom_site_label
 _atom_site_symmetry_multiplicity
 _atom_site_fract_x
 _atom_site_fract_y
 _atom_site_fract_z
 _atom_site_fract_occupancy
 Ba  Ba1  1  0.00000  0.00000  0.00000  1
 K  K1  1  0.59981  0.59981  0.59840  1
 K  K2  1  0.20069  0.20069  0.20055  1
 K  K3  1  0.79931  0.79931  0.79945  1
 K  K4  1  0.40019  0.40019  0.40160  1
 Nb  Nb1  1  0.20143  0.20143  0.69662  1
 Nb  Nb2  1  0.79857  0.79857  0.30338  1
 Nb  Nb3  1  0.39795  0.39795  0.90033  1
 Nb  Nb4  1  0.00000  -0.00000  0.50000  1
 Nb  Nb5  1  0.60205  0.60205  0.09967  1
 O  O1  1  0.39742  0.90083  0.90066  1
 O  O2  1  0.00000  0.50000  0.50000  1
 O  O3  1  0.29792  0.80166  0.29788  1
 O  O4  1  0.19834  0.70208  0.70212  1
 O  O5  1  0.80166  0.29792  0.29788  1
 O  O6  1  0.29991  0.29991  0.79978  1
 O  O7  1  0.50000  0.00000  0.50000  1
 O  O8  1  0.50000  0.50000  -0.00000  1
 O  O9  1  0.09933  0.09933  0.60284  1
 O  O10  1  0.70009  0.70009  0.20022  1
 O  O11  1  0.90067  0.90067  0.39716  1
 O  O12  1  0.09917  0.60258  0.09934  1
 O  O13  1  0.70208  0.19834  0.70212  1
 O  O14  1  0.60258  0.09917  0.09934  1
 O  O15  1  0.90083  0.39742  0.90066  1
