CIF file written using JARVIS-Tools package.
data_In3Cu3SiSe8
_symmetry_space_group_name_H-M  'P-4'
_cell_length_a       5.82958
_cell_length_b       5.82958
_cell_length_c       11.143
_cell_angle_alpha    90
_cell_angle_beta     90
_cell_angle_gamma    90

_symmetry_Int_Tables_number  81
_chemical_formula_structural  In3Cu3SiSe8
_chemical_formula_sum  In3Cu3SiSe8
_cell_volume  378.6832681148637
_cell_formula_units_Z  1
loop_
  _symmetry_equiv_pos_site_id
 _symmetry_equiv_pos_as_xyz
 1  'x, y, z'
loop_
 _atom_site_type_symbol
 _atom_site_label
 _atom_site_symmetry_multiplicity
 _atom_site_fract_x
 _atom_site_fract_y
 _atom_site_fract_z
 _atom_site_fract_occupancy
 Cu  Cu1  1  0.00000  0.50000  0.26844  1
 Cu  Cu2  1  0.50000  0.00000  0.73156  1
 Cu  Cu3  1  0.00000  0.00000  0.00000  1
 In  In1  1  0.50000  0.00000  0.26449  1
 In  In2  1  0.00000  0.50000  0.73551  1
 In  In3  1  0.50000  0.50000  0.00000  1
 Se  Se1  1  0.76619  0.26226  0.40027  1
 Se  Se2  1  0.25294  0.78088  0.86693  1
 Se  Se3  1  0.23381  0.73774  0.40027  1
 Se  Se4  1  0.74706  0.21912  0.86693  1
 Se  Se5  1  0.21912  0.25294  0.13307  1
 Se  Se6  1  0.73774  0.76619  0.59973  1
 Se  Se7  1  0.78088  0.74706  0.13307  1
 Se  Se8  1  0.26226  0.23381  0.59973  1
 Si  Si1  1  0.00000  0.00000  0.50000  1
