CIF file written using JARVIS-Tools package.
data_SmGaNi
_symmetry_space_group_name_H-M  'Pnma'
_cell_length_a       4.336
_cell_length_b       6.9688
_cell_length_c       7.37802
_cell_angle_alpha    90
_cell_angle_beta     90
_cell_angle_gamma    90

_symmetry_Int_Tables_number  62
_chemical_formula_structural  SmGaNi
_chemical_formula_sum  Sm4Ga4Ni4
_cell_volume  222.9393637705755
_cell_formula_units_Z  4
loop_
  _symmetry_equiv_pos_site_id
 _symmetry_equiv_pos_as_xyz
 1  'x, y, z'
loop_
 _atom_site_type_symbol
 _atom_site_label
 _atom_site_symmetry_multiplicity
 _atom_site_fract_x
 _atom_site_fract_y
 _atom_site_fract_z
 _atom_site_fract_occupancy
 Ga  Ga1  1  0.25000  0.17249  0.42101  1
 Ga  Ga2  1  0.25000  0.67249  0.07899  1
 Ga  Ga3  1  0.75000  0.82751  0.57899  1
 Ga  Ga4  1  0.75000  0.32751  0.92101  1
 Ni  Ni1  1  0.25000  0.79290  0.40532  1
 Ni  Ni2  1  0.25000  0.29290  0.09468  1
 Ni  Ni3  1  0.75000  0.20710  0.59468  1
 Ni  Ni4  1  0.75000  0.70710  0.90532  1
 Sm  Sm1  1  0.25000  0.02373  0.80597  1
 Sm  Sm2  1  0.25000  0.52373  0.69403  1
 Sm  Sm3  1  0.75000  0.97627  0.19403  1
 Sm  Sm4  1  0.75000  0.47627  0.30597  1
