CIF file written using JARVIS-Tools package.
data_ScCoSi
_symmetry_space_group_name_H-M  'Pnma'
_cell_length_a       3.98872
_cell_length_b       6.44012
_cell_length_c       6.80869
_cell_angle_alpha    90
_cell_angle_beta     90
_cell_angle_gamma    90

_symmetry_Int_Tables_number  62
_chemical_formula_structural  ScCoSi
_chemical_formula_sum  Sc4Co4Si4
_cell_volume  174.9006257204157
_cell_formula_units_Z  4
loop_
  _symmetry_equiv_pos_site_id
 _symmetry_equiv_pos_as_xyz
 1  'x, y, z'
loop_
 _atom_site_type_symbol
 _atom_site_label
 _atom_site_symmetry_multiplicity
 _atom_site_fract_x
 _atom_site_fract_y
 _atom_site_fract_z
 _atom_site_fract_occupancy
 Co  Co1  1  0.25000  0.15300  0.93688  1
 Co  Co2  1  0.25000  0.65300  0.56312  1
 Co  Co3  1  0.75000  0.84700  0.06312  1
 Co  Co4  1  0.75000  0.34700  0.43688  1
 Sc  Sc1  1  0.25000  0.99227  0.30589  1
 Sc  Sc2  1  0.25000  0.49227  0.19411  1
 Sc  Sc3  1  0.75000  0.00773  0.69411  1
 Sc  Sc4  1  0.75000  0.50773  0.80589  1
 Si  Si1  1  0.25000  0.29374  0.60822  1
 Si  Si2  1  0.25000  0.79374  0.89178  1
 Si  Si3  1  0.75000  0.70626  0.39178  1
 Si  Si4  1  0.75000  0.20626  0.10822  1
