CIF file written using JARVIS-Tools package.
data_Er3ScS6
_symmetry_space_group_name_H-M  'P2_1/m'
_cell_length_a       3.83684
_cell_length_b       10.8584
_cell_length_c       11.0251
_cell_angle_alpha    70.4361
_cell_angle_beta     90
_cell_angle_gamma    90

_symmetry_Int_Tables_number  11
_chemical_formula_structural  Er3ScS6
_chemical_formula_sum  Er6Sc2S2
_cell_volume  432.8102745682705
_cell_formula_units_Z  2
loop_
  _symmetry_equiv_pos_site_id
 _symmetry_equiv_pos_as_xyz
 1  'x, y, z'
loop_
 _atom_site_type_symbol
 _atom_site_label
 _atom_site_symmetry_multiplicity
 _atom_site_fract_x
 _atom_site_fract_y
 _atom_site_fract_z
 _atom_site_fract_occupancy
 Er  Er1  1  0.25000  0.45211  0.19320  1
 Er  Er2  1  0.75000  0.54789  0.80680  1
 Er  Er3  1  0.25000  0.81999  -0.00255  1
 Er  Er4  1  0.75000  0.18001  0.00255  1
 Er  Er5  1  0.25000  0.33449  0.58423  1
 Er  Er6  1  0.75000  0.66551  0.41577  1
 S  S1  1  0.25000  0.38780  0.96592  1
 S  S2  1  0.25000  0.58061  0.60027  1
 S  S3  1  0.25000  0.76432  0.76699  1
 S  S4  1  0.75000  0.23568  0.23301  1
 S  S5  1  0.75000  0.61220  0.03408  1
 S  S6  1  0.75000  0.30863  0.75188  1
 S  S7  1  0.25000  0.09711  0.56131  1
 S  S8  1  0.75000  0.98402  0.87555  1
 S  S9  1  0.25000  0.69137  0.24812  1
 S  S10  1  0.75000  0.90289  0.43869  1
 S  S11  1  0.25000  0.01598  0.12445  1
 S  S12  1  0.75000  0.41939  0.39973  1
 Sc  Sc1  1  0.75000  0.93570  0.66464  1
 Sc  Sc2  1  0.25000  0.06430  0.33536  1
