CIF file written using JARVIS-Tools package.
data_ZnH2C3O4
_symmetry_space_group_name_H-M  'P1'
_cell_length_a       4.81292
_cell_length_b       4.70484
_cell_length_c       5.81934
_cell_angle_alpha    92.1782
_cell_angle_beta     65.5782
_cell_angle_gamma    69.1479

_symmetry_Int_Tables_number  1
_chemical_formula_structural  ZnH2C3O4
_chemical_formula_sum  ZnH2C3O4
_cell_volume  109.43693843709192
_cell_formula_units_Z  1
loop_
  _symmetry_equiv_pos_site_id
 _symmetry_equiv_pos_as_xyz
 1  'x, y, z'
loop_
 _atom_site_type_symbol
 _atom_site_label
 _atom_site_symmetry_multiplicity
 _atom_site_fract_x
 _atom_site_fract_y
 _atom_site_fract_z
 _atom_site_fract_occupancy
 C  C1  1  0.86438  0.63211  0.30322  1
 C  C2  1  0.20004  0.38850  0.09980  1
 C  C3  1  0.15678  0.23516  0.89120  1
 H  H1  1  0.37635  0.49721  0.01962  1
 H  H2  1  0.29655  0.21179  0.19774  1
 O  O1  1  0.60605  0.63132  0.29021  1
 O  O2  1  0.84441  0.81829  0.47885  1
 O  O3  1  0.11949  0.98022  0.91688  1
 O  O4  1  0.15547  0.35278  0.69868  1
 Zn  Zn1  1  0.17862  0.75117  0.60275  1
