CIF file written using JARVIS-Tools package.
data_Fe2CuRh3S8
_symmetry_space_group_name_H-M  'R3m'
_cell_length_a       6.7929
_cell_length_b       6.7929
_cell_length_c       6.79291
_cell_angle_alpha    60.7563
_cell_angle_beta     60.7563
_cell_angle_gamma    60.7563

_symmetry_Int_Tables_number  160
_chemical_formula_structural  Fe2CuRh3S8
_chemical_formula_sum  Fe2CuRh3S8
_cell_volume  225.42385331798667
_cell_formula_units_Z  1
loop_
  _symmetry_equiv_pos_site_id
 _symmetry_equiv_pos_as_xyz
 1  'x, y, z'
loop_
 _atom_site_type_symbol
 _atom_site_label
 _atom_site_symmetry_multiplicity
 _atom_site_fract_x
 _atom_site_fract_y
 _atom_site_fract_z
 _atom_site_fract_occupancy
 Cu  Cu1  1  0.99736  0.99736  0.99736  1
 Fe  Fe1  1  0.38132  0.38132  0.38132  1
 Fe  Fe2  1  0.75116  0.75116  0.75116  1
 Rh  Rh1  1  0.37779  0.37779  0.86854  1
 Rh  Rh2  1  0.86854  0.37779  0.37779  1
 Rh  Rh3  1  0.37779  0.86854  0.37779  1
 S  S1  1  0.13288  0.13288  0.13288  1
 S  S2  1  0.14195  0.14195  0.59250  1
 S  S3  1  0.59250  0.14195  0.14195  1
 S  S4  1  0.14195  0.59250  0.14195  1
 S  S5  1  0.62351  0.62351  0.62351  1
 S  S6  1  0.61712  0.61712  0.12903  1
 S  S7  1  0.12903  0.61712  0.61712  1
 S  S8  1  0.61712  0.12903  0.61712  1
