CIF file written using JARVIS-Tools package.
data_Lu3Ga8Rh3
_symmetry_space_group_name_H-M  'Immm'
_cell_length_a       8.08948
_cell_length_b       8.08948
_cell_length_c       8.08948
_cell_angle_alpha    150.37
_cell_angle_beta     105.626
_cell_angle_gamma    82.0333

_symmetry_Int_Tables_number  71
_chemical_formula_structural  Lu3Ga8Rh3
_chemical_formula_sum  Lu3Ga8Rh3
_cell_volume  246.9168111550179
_cell_formula_units_Z  1
loop_
  _symmetry_equiv_pos_site_id
 _symmetry_equiv_pos_as_xyz
 1  'x, y, z'
loop_
 _atom_site_type_symbol
 _atom_site_label
 _atom_site_symmetry_multiplicity
 _atom_site_fract_x
 _atom_site_fract_y
 _atom_site_fract_z
 _atom_site_fract_occupancy
 Ga  Ga1  1  0.65897  0.37545  0.28351  1
 Ga  Ga2  1  0.34103  0.62455  0.71649  1
 Ga  Ga3  1  0.09194  0.37545  0.71649  1
 Ga  Ga4  1  0.90806  0.62455  0.28351  1
 Ga  Ga5  1  0.54286  0.17041  0.37245  1
 Ga  Ga6  1  0.45714  0.82959  0.62755  1
 Ga  Ga7  1  0.79796  0.17041  0.62755  1
 Ga  Ga8  1  0.20204  0.82959  0.37245  1
 Lu  Lu1  1  0.50000  0.50000  0.00000  1
 Lu  Lu2  1  0.16557  0.16557  0.00000  1
 Lu  Lu3  1  0.83443  0.83443  -0.00000  1
 Rh  Rh1  1  -0.00000  0.50000  0.50000  1
 Rh  Rh2  1  0.22155  -0.00000  0.22155  1
 Rh  Rh3  1  0.77845  0.00000  0.77845  1
