CIF file written using JARVIS-Tools package.
data_H12C19O
_symmetry_space_group_name_H-M  'Pm'
_cell_length_a       3.7341
_cell_length_b       5.86658
_cell_length_c       13.7263
_cell_angle_alpha    90.0077
_cell_angle_beta     90.0065
_cell_angle_gamma    102.487

_symmetry_Int_Tables_number  6
_chemical_formula_structural  H12C19O
_chemical_formula_sum  H2C9O
_cell_volume  293.5812483362759
_cell_formula_units_Z  1
loop_
  _symmetry_equiv_pos_site_id
 _symmetry_equiv_pos_as_xyz
 1  'x, y, z'
loop_
 _atom_site_type_symbol
 _atom_site_label
 _atom_site_symmetry_multiplicity
 _atom_site_fract_x
 _atom_site_fract_y
 _atom_site_fract_z
 _atom_site_fract_occupancy
 C  C1  1  0.26668  0.22391  0.13516  1
 C  C2  1  0.74630  0.36305  0.51858  1
 C  C3  1  0.62619  0.53771  0.57173  1
 C  C4  1  0.38592  0.27125  0.70675  1
 C  C5  1  0.74629  0.36305  0.41776  1
 C  C6  1  0.53945  0.50072  0.67629  1
 C  C7  1  0.62617  0.53771  0.36463  1
 C  C8  1  0.30336  0.40213  0.06500  1
 C  C9  1  0.26678  0.22391  0.80115  1
 C  C10  1  0.46926  0.63069  0.09322  1
 C  C11  1  0.53943  0.50071  0.26006  1
 C  C12  1  0.54673  0.72586  0.41734  1
 C  C13  1  0.57804  0.67870  0.74636  1
 C  C14  1  0.14626  0.31752  0.96815  1
 C  C15  1  0.54674  0.72586  0.51904  1
 C  C16  1  0.46918  0.63071  0.84314  1
 C  C17  1  0.57811  0.67868  0.19001  1
 C  C18  1  0.30337  0.40214  0.87132  1
 C  C19  1  0.38581  0.27125  0.22957  1
 H  H1  1  0.34665  0.12929  0.28234  1
 H  H2  1  0.14284  0.04654  0.82316  1
 H  H3  1  0.83842  0.22429  0.55734  1
 H  H4  1  0.50897  0.77554  0.04195  1
 H  H5  1  0.69801  0.85823  0.72556  1
 H  H6  1  0.34681  0.12929  0.65397  1
 H  H7  1  0.69815  0.85821  0.21084  1
 H  H8  1  0.50881  0.77557  0.89441  1
 H  H9  1  0.44642  0.86218  0.55734  1
 H  H10  1  0.14266  0.04655  0.11312  1
 H  H11  1  0.83840  0.22429  0.37900  1
 H  H12  1  0.44642  0.86218  0.37904  1
 O  O1  1  0.88257  0.14632  0.96813  1
