CIF file written using JARVIS-Tools package.
data_Cu2NiSn3S8
_symmetry_space_group_name_H-M  'R-3m'
_cell_length_a       7.30605
_cell_length_b       7.30605
_cell_length_c       7.30605
_cell_angle_alpha    60.6642
_cell_angle_beta     60.6641
_cell_angle_gamma    60.6641

_symmetry_Int_Tables_number  166
_chemical_formula_structural  Cu2NiSn3S8
_chemical_formula_sum  Cu2NiSn3S8
_cell_volume  279.89595369664215
_cell_formula_units_Z  1
loop_
  _symmetry_equiv_pos_site_id
 _symmetry_equiv_pos_as_xyz
 1  'x, y, z'
loop_
 _atom_site_type_symbol
 _atom_site_label
 _atom_site_symmetry_multiplicity
 _atom_site_fract_x
 _atom_site_fract_y
 _atom_site_fract_z
 _atom_site_fract_occupancy
 Cu  Cu1  1  0.38563  0.38563  0.38563  1
 Cu  Cu2  1  0.61437  0.61437  0.61437  1
 Ni  Ni1  1  0.00000  0.00000  0.00000  1
 S  S1  1  0.76445  0.23288  0.76445  1
 S  S2  1  0.74775  0.74775  0.74775  1
 S  S3  1  0.76712  0.23555  0.23555  1
 S  S4  1  0.23555  0.23555  0.76712  1
 S  S5  1  0.23555  0.76712  0.23555  1
 S  S6  1  0.25225  0.25225  0.25225  1
 S  S7  1  0.23288  0.76445  0.76445  1
 S  S8  1  0.76445  0.76445  0.23288  1
 Sn  Sn1  1  -0.00000  0.50000  -0.00000  1
 Sn  Sn2  1  0.00000  -0.00000  0.50000  1
 Sn  Sn3  1  0.50000  0.00000  -0.00000  1
