CIF file written using JARVIS-Tools package.
data_Li2MnSnS4
_symmetry_space_group_name_H-M  'Pc'
_cell_length_a       6.82864
_cell_length_b       6.45686
_cell_length_c       10.241
_cell_angle_alpha    51.0683
_cell_angle_beta     90
_cell_angle_gamma    90

_symmetry_Int_Tables_number  7
_chemical_formula_structural  Li2MnSnS4
_chemical_formula_sum  Li4Mn2Sn2S8
_cell_volume  351.2541950011176
_cell_formula_units_Z  2
loop_
  _symmetry_equiv_pos_site_id
 _symmetry_equiv_pos_as_xyz
 1  'x, y, z'
loop_
 _atom_site_type_symbol
 _atom_site_label
 _atom_site_symmetry_multiplicity
 _atom_site_fract_x
 _atom_site_fract_y
 _atom_site_fract_z
 _atom_site_fract_occupancy
 Li  Li1  1  0.33851  0.16515  0.22584  1
 Li  Li2  1  0.66149  0.16515  0.72584  1
 Li  Li3  1  0.83319  0.91345  0.47913  1
 Li  Li4  1  0.16681  0.91345  0.97913  1
 Mn  Mn1  1  0.16976  0.41869  0.47593  1
 Mn  Mn2  1  0.83024  0.41869  0.97593  1
 S  S1  1  0.33354  0.53973  0.22934  1
 S  S2  1  0.66646  0.53973  0.72934  1
 S  S3  1  0.83902  0.29370  0.47658  1
 S  S4  1  0.16098  0.29370  0.97658  1
 S  S5  1  0.83215  0.78987  0.97575  1
 S  S6  1  0.16785  0.78987  0.47575  1
 S  S7  1  0.67617  0.04713  0.22534  1
 S  S8  1  0.32383  0.04713  0.72534  1
 Sn  Sn1  1  0.66945  0.66722  0.22719  1
 Sn  Sn2  1  0.33055  0.66722  0.72719  1
