CIF file written using JARVIS-Tools package.
data_U2Si5Os3
_symmetry_space_group_name_H-M  'C2/c'
_cell_length_a       8.13472
_cell_length_b       8.13472
_cell_length_c       5.79906
_cell_angle_alpha    70.2889
_cell_angle_beta     70.2889
_cell_angle_gamma    92.824

_symmetry_Int_Tables_number  15
_chemical_formula_structural  U2Si5Os3
_chemical_formula_sum  U4Si0Os6
_cell_volume  334.2881860004959
_cell_formula_units_Z  2
loop_
  _symmetry_equiv_pos_site_id
 _symmetry_equiv_pos_as_xyz
 1  'x, y, z'
loop_
 _atom_site_type_symbol
 _atom_site_label
 _atom_site_symmetry_multiplicity
 _atom_site_fract_x
 _atom_site_fract_y
 _atom_site_fract_z
 _atom_site_fract_occupancy
 Os  Os1  1  0.00023  0.99977  0.25000  1
 Os  Os2  1  0.74736  0.45712  0.36343  1
 Os  Os3  1  0.45712  0.74736  0.86343  1
 Os  Os4  1  0.25264  0.54288  0.63657  1
 Os  Os5  1  0.99977  0.00023  0.75000  1
 Os  Os6  1  0.54288  0.25264  0.13657  1
 Si  Si1  1  0.20481  0.79519  0.75000  1
 Si  Si2  1  0.06439  0.26193  0.83627  1
 Si  Si3  1  0.73807  0.93561  0.66373  1
 Si  Si4  1  0.93561  0.73807  0.16373  1
 Si  Si5  1  0.26193  0.06439  0.33627  1
 Si  Si6  1  0.51535  0.48465  0.75000  1
 Si  Si7  1  0.48465  0.51535  0.25000  1
 Si  Si8  1  0.77665  0.22335  0.75000  1
 Si  Si9  1  0.22335  0.77665  0.25000  1
 Si  Si10  1  0.79519  0.20481  0.25000  1
 U  U1  1  0.59453  0.86917  0.26138  1
 U  U2  1  0.13083  0.40547  0.23862  1
 U  U3  1  0.40547  0.13083  0.73862  1
 U  U4  1  0.86917  0.59453  0.76138  1
