CIF file written using JARVIS-Tools package.
data_H4C8SO2
_symmetry_space_group_name_H-M  'P1'
_cell_length_a       3.64011
_cell_length_b       9.29035
_cell_length_c       9.91123
_cell_angle_alpha    71.3172
_cell_angle_beta     87.892
_cell_angle_gamma    84.3786

_symmetry_Int_Tables_number  1
_chemical_formula_structural  H4C8SO2
_chemical_formula_sum  H8C6S2O4
_cell_volume  315.98335804902797
_cell_formula_units_Z  2
loop_
  _symmetry_equiv_pos_site_id
 _symmetry_equiv_pos_as_xyz
 1  'x, y, z'
loop_
 _atom_site_type_symbol
 _atom_site_label
 _atom_site_symmetry_multiplicity
 _atom_site_fract_x
 _atom_site_fract_y
 _atom_site_fract_z
 _atom_site_fract_occupancy
 C  C1  1  0.49485  0.39741  0.87091  1
 C  C2  1  0.48115  0.57160  0.05132  1
 C  C3  1  0.47431  0.18254  0.74806  1
 C  C4  1  0.47431  0.68254  0.24806  1
 C  C5  1  0.32458  0.13600  0.41634  1
 C  C6  1  0.32458  0.63600  0.91634  1
 C  C7  1  0.33767  0.04946  0.32558  1
 C  C8  1  0.33767  0.54946  0.82558  1
 C  C9  1  0.59427  0.33338  0.75317  1
 C  C10  1  0.59427  0.83338  0.25317  1
 C  C11  1  0.61747  0.33031  0.01163  1
 C  C12  1  0.61747  0.83031  0.51163  1
 C  C13  1  0.61603  0.41852  0.10285  1
 C  C14  1  0.61603  0.91852  0.60285  1
 C  C15  1  0.48115  0.07160  0.55132  1
 C  C16  1  0.49485  0.89741  0.37091  1
 H  H1  1  0.73728  0.87138  0.70835  1
 H  H2  1  0.73797  0.21237  0.04695  1
 H  H3  1  0.73797  0.71237  0.54695  1
 H  H4  1  0.21759  0.75570  0.88292  1
 H  H5  1  0.21758  0.25570  0.38292  1
 H  H6  1  0.23671  0.59912  0.71694  1
 H  H7  1  0.23671  0.09912  0.21694  1
 H  H8  1  0.73728  0.37138  0.20835  1
 O  O1  1  0.77292  0.91034  0.15221  1
 O  O2  1  0.54793  0.18052  0.61469  1
 O  O3  1  0.54793  0.68052  0.11469  1
 O  O4  1  0.77292  0.41034  0.65221  1
 S  S1  1  0.28275  0.05647  0.87881  1
 S  S2  1  0.28275  0.55647  0.37881  1
