CIF file written using JARVIS-Tools package.
data_CoSiMo
_symmetry_space_group_name_H-M  'Amm2'
_cell_length_a       4.77329
_cell_length_b       4.77328
_cell_length_c       7.43909
_cell_angle_alpha    90
_cell_angle_beta     90
_cell_angle_gamma    118.963

_symmetry_Int_Tables_number  38
_chemical_formula_structural  CoSiMo
_chemical_formula_sum  Co4Si4Mo4
_cell_volume  148.29599526654266
_cell_formula_units_Z  4
loop_
  _symmetry_equiv_pos_site_id
 _symmetry_equiv_pos_as_xyz
 1  'x, y, z'
loop_
 _atom_site_type_symbol
 _atom_site_label
 _atom_site_symmetry_multiplicity
 _atom_site_fract_x
 _atom_site_fract_y
 _atom_site_fract_z
 _atom_site_fract_occupancy
 Co  Co1  1  0.00262  0.99738  0.26203  1
 Co  Co2  1  0.00262  0.99738  0.73797  1
 Co  Co3  1  0.16044  0.35159  0.00000  1
 Co  Co4  1  0.64841  0.83956  0.00000  1
 Mo  Mo1  1  0.33777  0.66223  0.68362  1
 Mo  Mo2  1  0.67014  0.32986  0.81453  1
 Mo  Mo3  1  0.67014  0.32986  0.18547  1
 Mo  Mo4  1  0.33777  0.66223  0.31638  1
 Si  Si1  1  0.15982  0.84018  0.00000  1
 Si  Si2  1  0.83456  0.65740  0.50000  1
 Si  Si3  1  0.34260  0.16544  0.50000  1
 Si  Si4  1  0.83310  0.16690  0.50000  1
