CIF file written using JARVIS-Tools package.
data_H5C8SNO
_symmetry_space_group_name_H-M  'P1'
_cell_length_a       3.61443
_cell_length_b       9.27243
_cell_length_c       10.2146
_cell_angle_alpha    72.0212
_cell_angle_beta     87.9516
_cell_angle_gamma    83.2063

_symmetry_Int_Tables_number  1
_chemical_formula_structural  H5C8SNO
_chemical_formula_sum  H0C6S2N2O2
_cell_volume  323.3358930609238
_cell_formula_units_Z  2
loop_
  _symmetry_equiv_pos_site_id
 _symmetry_equiv_pos_as_xyz
 1  'x, y, z'
loop_
 _atom_site_type_symbol
 _atom_site_label
 _atom_site_symmetry_multiplicity
 _atom_site_fract_x
 _atom_site_fract_y
 _atom_site_fract_z
 _atom_site_fract_occupancy
 C  C1  1  0.45444  0.08450  0.68383  1
 C  C2  1  0.45290  0.97751  0.48318  1
 C  C3  1  0.57285  0.73423  0.19218  1
 C  C4  1  0.57285  0.23423  0.69218  1
 C  C5  1  0.56986  0.32078  0.03317  1
 C  C6  1  0.56986  0.82078  0.53317  1
 C  C7  1  0.58019  0.23211  0.94415  1
 C  C8  1  0.45290  0.47751  0.98318  1
 C  C9  1  0.58019  0.73211  0.44415  1
 C  C10  1  0.47747  0.30042  0.80559  1
 C  C11  1  0.47747  0.80042  0.30559  1
 C  C12  1  0.33361  0.95550  0.25992  1
 C  C13  1  0.33361  0.45550  0.75992  1
 C  C14  1  0.31702  0.04276  0.34805  1
 C  C15  1  0.31702  0.54276  0.84805  1
 C  C16  1  0.45444  0.58450  0.18383  1
 H  H1  1  0.21710  0.66423  0.81236  1
 H  H2  1  0.69354  0.11239  0.97951  1
 H  H3  1  0.21710  0.16423  0.31236  1
 H  H4  1  0.59333  0.68338  0.99170  1
 H  H5  1  0.59333  0.18338  0.49170  1
 H  H6  1  0.24324  0.50617  0.65338  1
 H  H7  1  0.69354  0.61239  0.47951  1
 H  H8  1  0.67624  0.27120  0.13771  1
 H  H9  1  0.67625  0.77120  0.63771  1
 H  H10  1  0.24324  0.00617  0.15338  1
 N  N1  1  0.50596  0.58243  0.05318  1
 N  N2  1  0.50596  0.08243  0.55318  1
 O  O1  1  0.74190  0.81182  0.09210  1
 O  O2  1  0.74190  0.31182  0.59210  1
 S  S1  1  0.26430  0.46046  0.31419  1
 S  S2  1  0.26430  0.96046  0.81419  1
