CIF file written using JARVIS-Tools package.
data_HfSnC
_symmetry_space_group_name_H-M  'Pmm2'
_cell_length_a       3.47441
_cell_length_b       6.76789
_cell_length_c       3.23005
_cell_angle_alpha    90
_cell_angle_beta     90
_cell_angle_gamma    59.1502

_symmetry_Int_Tables_number  25
_chemical_formula_structural  HfSnC
_chemical_formula_sum  HfSnC
_cell_volume  65.20665831035335
_cell_formula_units_Z  1
loop_
  _symmetry_equiv_pos_site_id
 _symmetry_equiv_pos_as_xyz
 1  'x, y, z'
loop_
 _atom_site_type_symbol
 _atom_site_label
 _atom_site_symmetry_multiplicity
 _atom_site_fract_x
 _atom_site_fract_y
 _atom_site_fract_z
 _atom_site_fract_occupancy
 C  C1  1  0.29959  0.05462  0.00000  1
 Hf  Hf1  1  0.00401  -0.15001  0.00000  1
 Sn  Sn1  1  -0.06663  0.42049  0.00000  1
