CIF file written using JARVIS-Tools package.
data_H7C11S2N
_symmetry_space_group_name_H-M  'P1'
_cell_length_a       4.00838
_cell_length_b       5.8532
_cell_length_c       10.2467
_cell_angle_alpha    83.3765
_cell_angle_beta     80.7922
_cell_angle_gamma    74.0857

_symmetry_Int_Tables_number  1
_chemical_formula_structural  H7C11S2N
_chemical_formula_sum  H7CS2N
_cell_volume  227.56712299707837
_cell_formula_units_Z  1
loop_
  _symmetry_equiv_pos_site_id
 _symmetry_equiv_pos_as_xyz
 1  'x, y, z'
loop_
 _atom_site_type_symbol
 _atom_site_label
 _atom_site_symmetry_multiplicity
 _atom_site_fract_x
 _atom_site_fract_y
 _atom_site_fract_z
 _atom_site_fract_occupancy
 C  C1  1  0.91729  0.40300  0.20033  1
 C  C2  1  0.71892  0.60477  0.26619  1
 C  C3  1  0.08560  0.54155  0.63876  1
 C  C4  1  0.96663  0.52020  0.77439  1
 C  C5  1  0.37058  0.35860  0.59586  1
 C  C6  1  0.54599  0.58344  0.39267  1
 C  C7  1  0.16015  0.32067  0.83864  1
 C  C8  1  0.93928  0.17788  0.26888  1
 C  C9  1  0.76853  0.15714  0.39803  1
 C  C10  1  0.07837  0.44424  0.06243  1
 C  C11  1  0.56368  0.35867  0.46250  1
 H  H1  1  0.78933  0.98049  0.44836  1
 H  H2  1  0.03933  0.12069  0.01475  1
 H  H3  1  0.09348  0.01619  0.22261  1
 H  H4  1  0.39851  0.74445  0.44034  1
 H  H5  1  0.70050  0.77975  0.21460  1
 H  H6  1  0.96067  0.68534  0.57178  1
 H  H7  1  0.74294  0.64301  0.82539  1
 N  N1  1  0.11349  0.27241  0.97753  1
 S  S1  1  0.20393  0.69498  0.01380  1
 S  S2  1  0.48799  0.15192  0.72859  1
