CIF file written using JARVIS-Tools package.
data_CoNiSb6
_symmetry_space_group_name_H-M  'C2/m'
_cell_length_a       7.95891
_cell_length_b       7.95891
_cell_length_c       9.20269
_cell_angle_alpha    54.8468
_cell_angle_beta     54.8468
_cell_angle_gamma    70.6131

_symmetry_Int_Tables_number  12
_chemical_formula_structural  CoNiSb6
_chemical_formula_sum  Co2Ni2Sb2
_cell_volume  389.68973819420455
_cell_formula_units_Z  2
loop_
  _symmetry_equiv_pos_site_id
 _symmetry_equiv_pos_as_xyz
 1  'x, y, z'
loop_
 _atom_site_type_symbol
 _atom_site_label
 _atom_site_symmetry_multiplicity
 _atom_site_fract_x
 _atom_site_fract_y
 _atom_site_fract_z
 _atom_site_fract_occupancy
 Co  Co1  1  0.50000  0.00000  0.50000  1
 Co  Co2  1  0.00000  0.50000  0.50000  1
 Ni  Ni1  1  -0.00000  0.50000  -0.00000  1
 Ni  Ni2  1  0.50000  -0.00000  -0.00000  1
 Sb  Sb1  1  0.66894  0.66894  0.48994  1
 Sb  Sb2  1  0.33106  0.33106  0.51006  1
 Sb  Sb3  1  0.66276  0.66276  0.17801  1
 Sb  Sb4  1  0.33724  0.33724  0.82199  1
 Sb  Sb5  1  0.16178  0.84337  0.66324  1
 Sb  Sb6  1  0.83822  0.15663  0.33676  1
 Sb  Sb7  1  0.84337  0.16178  0.66324  1
 Sb  Sb8  1  0.15663  0.83822  0.33676  1
 Sb  Sb9  1  0.82509  0.49312  0.83801  1
 Sb  Sb10  1  0.17491  0.50688  0.16199  1
 Sb  Sb11  1  0.50688  0.17491  0.16199  1
 Sb  Sb12  1  0.49312  0.82509  0.83801  1
