CIF file written using JARVIS-Tools package.
data_Y3Co
_symmetry_space_group_name_H-M  'Pnma'
_cell_length_a       6.24333
_cell_length_b       6.91163
_cell_length_c       9.39324
_cell_angle_alpha    90
_cell_angle_beta     90
_cell_angle_gamma    90

_symmetry_Int_Tables_number  62
_chemical_formula_structural  Y3Co
_chemical_formula_sum  Y2Co4
_cell_volume  405.33303136987985
_cell_formula_units_Z  4
loop_
  _symmetry_equiv_pos_site_id
 _symmetry_equiv_pos_as_xyz
 1  'x, y, z'
loop_
 _atom_site_type_symbol
 _atom_site_label
 _atom_site_symmetry_multiplicity
 _atom_site_fract_x
 _atom_site_fract_y
 _atom_site_fract_z
 _atom_site_fract_occupancy
 Co  Co1  1  0.04712  0.88768  0.25000  1
 Co  Co2  1  0.45288  0.38768  0.25000  1
 Co  Co3  1  0.95288  0.11232  0.75000  1
 Co  Co4  1  0.54712  0.61232  0.75000  1
 Y  Y1  1  0.32321  0.67476  0.06797  1
 Y  Y2  1  0.17679  0.17476  0.43203  1
 Y  Y3  1  0.67679  0.32524  0.56797  1
 Y  Y4  1  0.82321  0.82524  0.93203  1
 Y  Y5  1  0.67679  0.32524  0.93203  1
 Y  Y6  1  0.82321  0.82524  0.56797  1
 Y  Y7  1  0.32321  0.67476  0.43203  1
 Y  Y8  1  0.17679  0.17476  0.06797  1
 Y  Y9  1  0.85786  0.54305  0.25000  1
 Y  Y10  1  0.64214  0.04305  0.25000  1
 Y  Y11  1  0.14214  0.45695  0.75000  1
 Y  Y12  1  0.35786  0.95695  0.75000  1
