CIF file written using JARVIS-Tools package.
data_CeHo4S7
_symmetry_space_group_name_H-M  'C2/m'
_cell_length_a       6.7696
_cell_length_b       6.7696
_cell_length_c       11.5721
_cell_angle_alpha    75.666
_cell_angle_beta     75.666
_cell_angle_gamma    32.6396

_symmetry_Int_Tables_number  12
_chemical_formula_structural  CeHo4S7
_chemical_formula_sum  CeHo4S7
_cell_volume  276.3486039784517
_cell_formula_units_Z  1
loop_
  _symmetry_equiv_pos_site_id
 _symmetry_equiv_pos_as_xyz
 1  'x, y, z'
loop_
 _atom_site_type_symbol
 _atom_site_label
 _atom_site_symmetry_multiplicity
 _atom_site_fract_x
 _atom_site_fract_y
 _atom_site_fract_z
 _atom_site_fract_occupancy
 Ce  Ce1  1  0.00000  0.00000  0.00000  1
 Ho  Ho1  1  0.11244  0.11244  0.57682  1
 Ho  Ho2  1  0.88756  0.88756  0.42318  1
 Ho  Ho3  1  0.30041  0.30041  0.80934  1
 Ho  Ho4  1  0.69959  0.69959  0.19066  1
 S  S1  1  0.26120  0.26120  0.35388  1
 S  S2  1  0.73880  0.73880  0.64612  1
 S  S3  1  0.66567  0.66567  0.94573  1
 S  S4  1  0.33433  0.33433  0.05427  1
 S  S5  1  0.95605  0.95605  0.77882  1
 S  S6  1  0.04395  0.04395  0.22118  1
 S  S7  1  0.50000  0.50000  0.50000  1
