CIF file written using JARVIS-Tools package.
data_MnB4
_symmetry_space_group_name_H-M  'P2_1/c'
_cell_length_a       5.34439
_cell_length_b       5.46506
_cell_length_c       5.49395
_cell_angle_alpha    64.8991
_cell_angle_beta     90
_cell_angle_gamma    90

_symmetry_Int_Tables_number  14
_chemical_formula_structural  MnB4
_chemical_formula_sum  Mn4B6
_cell_volume  145.31024709156594
_cell_formula_units_Z  4
loop_
  _symmetry_equiv_pos_site_id
 _symmetry_equiv_pos_as_xyz
 1  'x, y, z'
loop_
 _atom_site_type_symbol
 _atom_site_label
 _atom_site_symmetry_multiplicity
 _atom_site_fract_x
 _atom_site_fract_y
 _atom_site_fract_z
 _atom_site_fract_occupancy
 B  B1  1  0.13157  0.32986  0.32632  1
 B  B2  1  0.17971  0.13076  0.12750  1
 B  B3  1  0.67971  0.86924  0.37250  1
 B  B4  1  0.82029  0.86924  0.87250  1
 B  B5  1  0.32029  0.13076  0.62750  1
 B  B6  1  0.18551  0.63604  0.63800  1
 B  B7  1  0.86871  0.16223  0.15825  1
 B  B8  1  0.68551  0.36396  0.86200  1
 B  B9  1  0.31449  0.63604  0.13800  1
 B  B10  1  0.36871  0.83777  0.34175  1
 B  B11  1  0.63157  0.67014  0.17368  1
 B  B12  1  0.86843  0.67014  0.67368  1
 B  B13  1  0.36843  0.32986  0.82632  1
 B  B14  1  0.13129  0.83777  0.84175  1
 B  B15  1  0.63129  0.16223  0.65825  1
 B  B16  1  0.81449  0.36396  0.36200  1
 Mn  Mn1  1  0.50022  0.72948  0.77635  1
 Mn  Mn2  1  0.00022  0.27052  0.72365  1
 Mn  Mn3  1  0.49978  0.27052  0.22365  1
 Mn  Mn4  1  0.99978  0.72948  0.27635  1
