CIF file written using JARVIS-Tools package.
data_CaSmCrO4
_symmetry_space_group_name_H-M  'Cmc2_1'
_cell_length_a       6.45362
_cell_length_b       6.45362
_cell_length_c       5.55994
_cell_angle_alpha    90
_cell_angle_beta     90
_cell_angle_gamma    131.352

_symmetry_Int_Tables_number  36
_chemical_formula_structural  CaSmCrO4
_chemical_formula_sum  Ca2Sm2Cr2O8
_cell_volume  173.82870276401383
_cell_formula_units_Z  2
loop_
  _symmetry_equiv_pos_site_id
 _symmetry_equiv_pos_as_xyz
 1  'x, y, z'
loop_
 _atom_site_type_symbol
 _atom_site_label
 _atom_site_symmetry_multiplicity
 _atom_site_fract_x
 _atom_site_fract_y
 _atom_site_fract_z
 _atom_site_fract_occupancy
 Ca  Ca1  1  0.89617  0.10383  0.51526  1
 Ca  Ca2  1  0.10383  0.89617  0.01526  1
 Cr  Cr1  1  0.24956  0.75044  0.49841  1
 Cr  Cr2  1  0.75044  0.24956  0.99841  1
 O  O1  1  0.52540  0.97794  0.25147  1
 O  O2  1  0.47460  0.02206  0.75147  1
 O  O3  1  0.97794  0.52540  0.75147  1
 O  O4  1  0.02206  0.47460  0.25147  1
 O  O5  1  0.08321  0.91679  0.43654  1
 O  O6  1  0.42309  0.57691  0.56493  1
 O  O7  1  0.91679  0.08321  0.93654  1
 O  O8  1  0.57691  0.42309  0.06493  1
 Sm  Sm1  1  0.61150  0.38850  0.48192  1
 Sm  Sm2  1  0.38850  0.61150  0.98192  1
