CIF file written using JARVIS-Tools package.
data_HCNO
_symmetry_space_group_name_H-M  'Pm'
_cell_length_a       3.41061
_cell_length_b       2.41018
_cell_length_c       4.07972
_cell_angle_alpha    90
_cell_angle_beta     107.092
_cell_angle_gamma    90

_symmetry_Int_Tables_number  6
_chemical_formula_structural  HCNO
_chemical_formula_sum  HCNO
_cell_volume  32.05481730965513
_cell_formula_units_Z  1
loop_
  _symmetry_equiv_pos_site_id
 _symmetry_equiv_pos_as_xyz
 1  'x, y, z'
loop_
 _atom_site_type_symbol
 _atom_site_label
 _atom_site_symmetry_multiplicity
 _atom_site_fract_x
 _atom_site_fract_y
 _atom_site_fract_z
 _atom_site_fract_occupancy
 C  C1  1  0.57907  0.50000  0.56496  1
 H  H1  1  0.19573  0.00000  0.16695  1
 N  N1  1  0.42121  0.00000  0.40049  1
 O  O1  1  0.84805  0.50000  0.84163  1
