CIF file written using JARVIS-Tools package.
data_Ce2NiSn2Pt
_symmetry_space_group_name_H-M  'Pmc2_1'
_cell_length_a       4.59081
_cell_length_b       7.39149
_cell_length_c       7.90745
_cell_angle_alpha    90
_cell_angle_beta     90
_cell_angle_gamma    90

_symmetry_Int_Tables_number  26
_chemical_formula_structural  Ce2NiSn2Pt
_chemical_formula_sum  Ce4Ni2Sn4Pt2
_cell_volume  268.3232269428859
_cell_formula_units_Z  2
loop_
  _symmetry_equiv_pos_site_id
 _symmetry_equiv_pos_as_xyz
 1  'x, y, z'
loop_
 _atom_site_type_symbol
 _atom_site_label
 _atom_site_symmetry_multiplicity
 _atom_site_fract_x
 _atom_site_fract_y
 _atom_site_fract_z
 _atom_site_fract_occupancy
 Ce  Ce1  1  0.50000  0.48170  0.55074  1
 Ce  Ce2  1  0.50000  0.98170  0.44926  1
 Ce  Ce3  1  0.00000  0.51095  0.95029  1
 Ce  Ce4  1  0.00000  0.01095  0.04971  1
 Ni  Ni1  1  0.00000  0.79870  0.66362  1
 Ni  Ni2  1  0.00000  0.29870  0.33638  1
 Pt  Pt1  1  0.50000  0.22043  0.83896  1
 Pt  Pt2  1  0.50000  0.72043  0.16104  1
 Sn  Sn1  1  0.50000  0.31138  0.17595  1
 Sn  Sn2  1  0.50000  0.81138  0.82405  1
 Sn  Sn3  1  0.00000  0.67684  0.34759  1
 Sn  Sn4  1  0.00000  0.17684  0.65241  1
