CIF file written using JARVIS-Tools package.
data_Be2BH3O5
_symmetry_space_group_name_H-M  'P2_1'
_cell_length_a       10.5437
_cell_length_b       4.44034
_cell_length_c       4.4532
_cell_angle_alpha    60.0327
_cell_angle_beta     90
_cell_angle_gamma    90

_symmetry_Int_Tables_number  4
_chemical_formula_structural  Be2BH3O5
_chemical_formula_sum  Be4B2H6O0
_cell_volume  180.6146362983209
_cell_formula_units_Z  2
loop_
  _symmetry_equiv_pos_site_id
 _symmetry_equiv_pos_as_xyz
 1  'x, y, z'
loop_
 _atom_site_type_symbol
 _atom_site_label
 _atom_site_symmetry_multiplicity
 _atom_site_fract_x
 _atom_site_fract_y
 _atom_site_fract_z
 _atom_site_fract_occupancy
 B  B1  1  0.75108  0.68302  0.64407  1
 B  B2  1  0.25108  0.31698  0.35593  1
 Be  Be1  1  0.80010  0.01449  0.97685  1
 Be  Be2  1  0.30010  0.98551  0.02315  1
 Be  Be3  1  0.69683  0.34978  0.31108  1
 Be  Be4  1  0.19683  0.65022  0.68892  1
 H  H1  1  0.49477  0.12745  0.14263  1
 H  H2  1  0.99666  0.25296  0.85804  1
 H  H3  1  0.99477  0.87255  0.85737  1
 H  H4  1  0.49666  0.74704  0.14196  1
 H  H5  1  0.01137  0.76862  0.44977  1
 H  H6  1  0.51137  0.23138  0.55023  1
 O  O1  1  0.04329  0.64764  0.68996  1
 O  O2  1  0.95815  0.00709  -0.02933  1
 O  O3  1  0.75311  0.99276  0.33472  1
 O  O4  1  0.74868  0.68346  0.95299  1
 O  O5  1  0.75075  0.37313  0.64485  1
 O  O6  1  0.25311  0.00724  0.66528  1
 O  O7  1  0.24868  0.31654  0.04701  1
 O  O8  1  0.25075  0.62687  0.35515  1
 O  O9  1  0.54329  0.35236  0.31004  1
 O  O10  1  0.45815  0.99291  0.02933  1
