CIF file written using JARVIS-Tools package.
data_Li2MnCoO4
_symmetry_space_group_name_H-M  'P-1'
_cell_length_a       4.96186
_cell_length_b       5.00052
_cell_length_c       5.84219
_cell_angle_alpha    91.7362
_cell_angle_beta     92.4892
_cell_angle_gamma    107.887

_symmetry_Int_Tables_number  2
_chemical_formula_structural  Li2MnCoO4
_chemical_formula_sum  Li4Mn2Co2O8
_cell_volume  137.67399150577594
_cell_formula_units_Z  2
loop_
  _symmetry_equiv_pos_site_id
 _symmetry_equiv_pos_as_xyz
 1  'x, y, z'
loop_
 _atom_site_type_symbol
 _atom_site_label
 _atom_site_symmetry_multiplicity
 _atom_site_fract_x
 _atom_site_fract_y
 _atom_site_fract_z
 _atom_site_fract_occupancy
 Co  Co1  1  0.74634  0.99487  0.87795  1
 Co  Co2  1  0.25366  0.00513  0.12205  1
 Li  Li1  1  0.75802  0.50134  0.12102  1
 Li  Li2  1  0.26680  0.50685  0.35931  1
 Li  Li3  1  0.73320  0.49315  0.64069  1
 Li  Li4  1  0.24198  0.49866  0.87898  1
 Mn  Mn1  1  0.75416  0.01082  0.36605  1
 Mn  Mn2  1  0.24584  0.98918  0.63395  1
 O  O1  1  0.98993  0.76428  0.89158  1
 O  O2  1  0.51578  0.78463  0.11720  1
 O  O3  1  0.02308  0.78864  0.36450  1
 O  O4  1  0.48846  0.75552  0.63812  1
 O  O5  1  0.51154  0.24448  0.36188  1
 O  O6  1  0.97692  0.21136  0.63550  1
 O  O7  1  0.48422  0.21537  0.88280  1
 O  O8  1  0.01007  0.23572  0.10842  1
