CIF file written using JARVIS-Tools package.
data_Li5Cl3O
_symmetry_space_group_name_H-M  'I4/mcm'
_cell_length_a       7.5983
_cell_length_b       7.59831
_cell_length_c       7.5983
_cell_angle_alpha    125.57
_cell_angle_beta     125.57
_cell_angle_gamma    80.5957

_symmetry_Int_Tables_number  140
_chemical_formula_structural  Li5Cl3O
_chemical_formula_sum  Li0Cl6O2
_cell_volume  279.9094656602635
_cell_formula_units_Z  2
loop_
  _symmetry_equiv_pos_site_id
 _symmetry_equiv_pos_as_xyz
 1  'x, y, z'
loop_
 _atom_site_type_symbol
 _atom_site_label
 _atom_site_symmetry_multiplicity
 _atom_site_fract_x
 _atom_site_fract_y
 _atom_site_fract_z
 _atom_site_fract_occupancy
 Cl  Cl1  1  0.29914  0.20086  0.50000  1
 Cl  Cl2  1  0.70086  0.79914  0.50000  1
 Cl  Cl3  1  0.79914  0.29914  0.09828  1
 Cl  Cl4  1  0.20086  0.70086  0.90172  1
 Cl  Cl5  1  0.25000  0.25000  0.00000  1
 Cl  Cl6  1  0.75000  0.75000  0.00000  1
 Li  Li1  1  0.00000  0.00000  0.00000  1
 Li  Li2  1  0.29959  0.51714  0.50000  1
 Li  Li3  1  0.50000  0.50000  0.00000  1
 Li  Li4  1  0.79959  0.29959  0.78245  1
 Li  Li5  1  0.51714  0.01714  0.21755  1
 Li  Li6  1  0.70041  0.48286  0.50000  1
 Li  Li7  1  0.01714  0.79959  0.50000  1
 Li  Li8  1  0.20041  0.70041  0.21755  1
 Li  Li9  1  0.48286  0.98286  0.78245  1
 Li  Li10  1  0.98286  0.20041  0.50000  1
 O  O1  1  0.75000  0.25000  0.50000  1
 O  O2  1  0.25000  0.75000  0.50000  1
