CIF file written using JARVIS-Tools package.
data_Li3Mn2CoO6
_symmetry_space_group_name_H-M  'C2/m'
_cell_length_a       5.02806
_cell_length_b       5.02807
_cell_length_c       8.79296
_cell_angle_alpha    63.8731
_cell_angle_beta     63.8731
_cell_angle_gamma    32.7097

_symmetry_Int_Tables_number  12
_chemical_formula_structural  Li3Mn2CoO6
_chemical_formula_sum  Li3Mn2CoO6
_cell_volume  106.72917407027069
_cell_formula_units_Z  1
loop_
  _symmetry_equiv_pos_site_id
 _symmetry_equiv_pos_as_xyz
 1  'x, y, z'
loop_
 _atom_site_type_symbol
 _atom_site_label
 _atom_site_symmetry_multiplicity
 _atom_site_fract_x
 _atom_site_fract_y
 _atom_site_fract_z
 _atom_site_fract_occupancy
 Co  Co1  1  0.00000  0.00000  0.00000  1
 Li  Li1  1  0.33185  0.33185  0.84854  1
 Li  Li2  1  -0.00000  0.00000  0.50000  1
 Li  Li3  1  0.66815  0.66815  0.15146  1
 Mn  Mn1  1  0.67254  0.67254  0.68082  1
 Mn  Mn2  1  0.32746  0.32746  0.31918  1
 O  O1  1  0.34744  0.34744  0.06685  1
 O  O2  1  0.01667  0.01667  0.76596  1
 O  O3  1  0.67401  0.67401  0.40398  1
 O  O4  1  0.32599  0.32599  0.59602  1
 O  O5  1  0.98333  0.98333  0.23404  1
 O  O6  1  0.65256  0.65256  0.93315  1
