CIF file written using JARVIS-Tools package.
data_Li3Mn2O5
_symmetry_space_group_name_H-M  'C2/m'
_cell_length_a       2.8352
_cell_length_b       11.8602
_cell_length_c       5.03132
_cell_angle_alpha    84.9645
_cell_angle_beta     89.9749
_cell_angle_gamma    83.0995

_symmetry_Int_Tables_number  12
_chemical_formula_structural  Li3Mn2O5
_chemical_formula_sum  Li6Mn4O0
_cell_volume  167.30125794990636
_cell_formula_units_Z  2
loop_
  _symmetry_equiv_pos_site_id
 _symmetry_equiv_pos_as_xyz
 1  'x, y, z'
loop_
 _atom_site_type_symbol
 _atom_site_label
 _atom_site_symmetry_multiplicity
 _atom_site_fract_x
 _atom_site_fract_y
 _atom_site_fract_z
 _atom_site_fract_occupancy
 Li  Li1  1  0.89988  0.20001  0.29999  1
 Li  Li2  1  0.39994  0.20000  0.80000  1
 Li  Li3  1  0.30375  0.39223  0.09279  1
 Li  Li4  1  0.49623  0.00777  0.50722  1
 Li  Li5  1  0.70183  0.59638  0.90032  1
 Li  Li6  1  0.09823  0.80362  0.69966  1
 Mn  Mn1  1  0.80328  0.39378  0.60754  1
 Mn  Mn2  1  0.19915  0.60184  0.39871  1
 Mn  Mn3  1  0.99673  0.00622  0.99247  1
 Mn  Mn4  1  0.60091  0.79816  0.20128  1
 O  O1  1  0.14897  0.70258  0.06572  1
 O  O2  1  0.05395  0.89147  0.32891  1
 O  O3  1  0.45515  0.08887  0.14136  1
 O  O4  1  0.34485  0.31113  0.45865  1
 O  O5  1  0.84475  0.31069  0.92264  1
 O  O6  1  0.95522  0.08931  0.67737  1
 O  O7  1  0.25041  0.49898  0.72111  1
 O  O8  1  0.54960  0.90102  0.87888  1
 O  O9  1  0.65106  0.69741  0.53427  1
 O  O10  1  0.74610  0.50853  0.27109  1
