CIF file written using JARVIS-Tools package.
data_SnH26C14O4
_symmetry_space_group_name_H-M  'P1'
_cell_length_a       4.88849
_cell_length_b       7.73415
_cell_length_c       10.4973
_cell_angle_alpha    107.547
_cell_angle_beta     87.5455
_cell_angle_gamma    103.395

_symmetry_Int_Tables_number  1
_chemical_formula_structural  SnH26C14O4
_chemical_formula_sum  SnH26C4O4
_cell_volume  367.9684186710866
_cell_formula_units_Z  1
loop_
  _symmetry_equiv_pos_site_id
 _symmetry_equiv_pos_as_xyz
 1  'x, y, z'
loop_
 _atom_site_type_symbol
 _atom_site_label
 _atom_site_symmetry_multiplicity
 _atom_site_fract_x
 _atom_site_fract_y
 _atom_site_fract_z
 _atom_site_fract_occupancy
 C  C1  1  0.68071  0.88544  0.63064  1
 C  C2  1  0.17436  0.88712  0.93053  1
 C  C3  1  0.02893  0.43599  0.33164  1
 C  C4  1  0.30930  0.92523  0.06977  1
 C  C5  1  0.96369  0.08826  0.22139  1
 C  C6  1  0.18735  0.61691  0.43274  1
 C  C7  1  0.09700  0.91858  0.18146  1
 C  C8  1  0.03880  0.68289  0.86980  1
 C  C9  1  0.62236  0.88870  0.48799  1
 C  C10  1  0.48335  0.69700  0.39243  1
 C  C11  1  0.84533  0.07309  0.71681  1
 C  C12  1  0.60295  0.38031  0.61035  1
 C  C13  1  0.15497  0.26605  0.31082  1
 C  C14  1  0.31413  0.38261  -0.00123  1
 H  H1  1  0.20456  0.91353  0.27013  1
 H  H2  1  0.93237  0.78860  0.14950  1
 H  H3  1  0.00844  0.46067  0.23457  1
 H  H4  1  0.19649  0.59360  0.53092  1
 H  H5  1  0.06500  0.72374  0.44654  1
 H  H6  1  0.36565  0.29001  0.26846  1
 H  H7  1  0.33801  0.93150  0.86500  1
 H  H8  1  0.61828  0.59940  0.38491  1
 H  H9  1  0.82942  0.39050  0.61493  1
 H  H10  1  0.56035  0.50270  0.59108  1
 H  H11  1  0.32590  0.52885  0.05422  1
 H  H12  1  0.09869  0.30022  -0.00528  1
 H  H13  1  0.47118  0.71094  0.29131  1
 H  H14  1  0.49725  0.25361  0.53476  1
 H  H15  1  0.48355  0.98427  0.49429  1
 H  H16  1  0.90276  0.11517  0.13059  1
 H  H17  1  0.82241  0.94598  0.44744  1
 H  H18  1  0.48299  0.84429  0.67842  1
 H  H19  1  0.18347  0.24622  0.40867  1
 H  H20  1  0.46133  0.32818  0.04308  1
 H  H21  1  0.81313  0.39930  0.36580  1
 H  H22  1  0.76647  0.05729  0.27356  1
 H  H23  1  0.45144  0.06424  0.09479  1
 H  H24  1  0.44530  0.82746  0.06203  1
 H  H25  1  0.80882  0.78381  0.62487  1
 H  H26  1  0.01254  0.96731  0.93860  1
 O  O1  1  0.18300  0.57673  0.79302  1
 O  O2  1  0.72217  0.17778  0.80748  1
 O  O3  1  0.78429  0.62820  0.90000  1
 O  O4  1  0.10776  0.11662  0.69391  1
 Sn  Sn1  1  0.44299  0.37375  0.80107  1
