CIF file written using JARVIS-Tools package.
data_SnH16C9O4
_symmetry_space_group_name_H-M  'P1'
_cell_length_a       4.5959
_cell_length_b       6.89221
_cell_length_c       8.62696
_cell_angle_alpha    96.9809
_cell_angle_beta     99.3912
_cell_angle_gamma    103.087

_symmetry_Int_Tables_number  1
_chemical_formula_structural  SnH16C9O4
_chemical_formula_sum  SnH6C9O4
_cell_volume  259.0061191552725
_cell_formula_units_Z  1
loop_
  _symmetry_equiv_pos_site_id
 _symmetry_equiv_pos_as_xyz
 1  'x, y, z'
loop_
 _atom_site_type_symbol
 _atom_site_label
 _atom_site_symmetry_multiplicity
 _atom_site_fract_x
 _atom_site_fract_y
 _atom_site_fract_z
 _atom_site_fract_occupancy
 C  C1  1  0.79217  0.13485  0.87473  1
 C  C2  1  0.02006  0.34329  0.29902  1
 C  C3  1  0.76697  0.57042  0.62746  1
 C  C4  1  0.57412  0.73160  0.14076  1
 C  C5  1  0.65641  0.29926  0.81021  1
 C  C6  1  0.88673  0.43868  0.73779  1
 C  C7  1  0.74234  0.84772  0.03092  1
 C  C8  1  0.57507  0.98836  0.94963  1
 C  C9  1  0.41423  0.97341  0.44173  1
 H  H1  1  0.58731  0.38720  0.90716  1
 H  H2  1  0.37747  0.90057  0.85838  1
 H  H3  1  0.96595  0.93319  0.10071  1
 H  H4  1  0.48365  0.07445  0.03802  1
 H  H5  1  0.00410  0.34929  0.66620  1
 H  H6  1  0.44743  0.23038  0.72093  1
 H  H7  1  0.20509  0.28448  0.26266  1
 H  H8  1  0.83418  0.32590  0.19768  1
 H  H9  1  0.86438  0.04823  0.77810  1
 H  H10  1  0.45492  0.03353  0.33352  1
 H  H11  1  0.25967  0.04472  0.49786  1
 H  H12  1  0.62911  -0.01016  0.52436  1
 H  H13  1  0.93991  0.26898  0.39468  1
 H  H14  1  0.00256  0.20764  0.96347  1
 H  H15  1  0.07167  0.53697  0.83101  1
 H  H16  1  0.79264  0.73870  0.94146  1
 O  O1  1  0.72067  0.68633  0.26643  1
 O  O2  1  0.48153  0.54166  0.58170  1
 O  O3  1  0.28487  0.68795  0.11577  1
 O  O4  1  0.96389  0.70567  0.58289  1
 Sn  Sn1  1  0.20074  0.65865  0.38164  1
