CIF file written using JARVIS-Tools package.
data_Ba3LaNb3O12
_symmetry_space_group_name_H-M  'R3m'
_cell_length_a       9.86798
_cell_length_b       9.86798
_cell_length_c       9.86798
_cell_angle_alpha    34.2422
_cell_angle_beta     34.2422
_cell_angle_gamma    34.2422

_symmetry_Int_Tables_number  160
_chemical_formula_structural  Ba3LaNb3O12
_chemical_formula_sum  Ba3LaNb3O2
_cell_volume  271.30897519140666
_cell_formula_units_Z  1
loop_
  _symmetry_equiv_pos_site_id
 _symmetry_equiv_pos_as_xyz
 1  'x, y, z'
loop_
 _atom_site_type_symbol
 _atom_site_label
 _atom_site_symmetry_multiplicity
 _atom_site_fract_x
 _atom_site_fract_y
 _atom_site_fract_z
 _atom_site_fract_occupancy
 Ba  Ba1  1  0.71045  0.71045  0.71045  1
 Ba  Ba2  1  0.28868  0.28868  0.28868  1
 Ba  Ba3  1  0.13173  0.13173  0.13173  1
 La  La1  1  0.85588  0.85588  0.85588  1
 Nb  Nb1  1  0.57506  0.57506  0.57506  1
 Nb  Nb2  1  0.42447  0.42447  0.42447  1
 Nb  Nb3  1  0.99919  0.99919  0.99919  1
 O  O1  1  0.20881  0.71111  0.20881  1
 O  O2  1  0.20881  0.20881  0.71111  1
 O  O3  1  0.62631  0.62631  0.12313  1
 O  O4  1  0.79476  0.28907  0.79476  1
 O  O5  1  0.71111  0.20881  0.20881  1
 O  O6  1  0.37721  0.37721  0.87706  1
 O  O7  1  0.37721  0.87706  0.37721  1
 O  O8  1  0.79476  0.79476  0.28907  1
 O  O9  1  0.87706  0.37721  0.37721  1
 O  O10  1  0.62631  0.12313  0.62631  1
 O  O11  1  0.28907  0.79476  0.79476  1
 O  O12  1  0.12313  0.62631  0.62631  1
