CIF file written using JARVIS-Tools package.
data_Li7Mn2Co3O12
_symmetry_space_group_name_H-M  'C2/m'
_cell_length_a       7.54139
_cell_length_b       7.54139
_cell_length_c       9.52174
_cell_angle_alpha    79.7577
_cell_angle_beta     79.7577
_cell_angle_gamma    21.7285

_symmetry_Int_Tables_number  12
_chemical_formula_structural  Li7Mn2Co3O12
_chemical_formula_sum  Li7Mn2Co3O2
_cell_volume  197.16395238856188
_cell_formula_units_Z  1
loop_
  _symmetry_equiv_pos_site_id
 _symmetry_equiv_pos_as_xyz
 1  'x, y, z'
loop_
 _atom_site_type_symbol
 _atom_site_label
 _atom_site_symmetry_multiplicity
 _atom_site_fract_x
 _atom_site_fract_y
 _atom_site_fract_z
 _atom_site_fract_occupancy
 Co  Co1  1  0.50000  0.50000  0.50000  1
 Co  Co2  1  0.16655  0.16655  0.50152  1
 Co  Co3  1  0.83345  0.83345  0.49848  1
 Li  Li1  1  0.00000  0.00000  0.00000  1
 Li  Li2  1  0.42429  0.42429  0.24271  1
 Li  Li3  1  0.91829  0.91829  0.74999  1
 Li  Li4  1  0.57571  0.57571  0.75729  1
 Li  Li5  1  0.24964  0.24964  0.74391  1
 Li  Li6  1  0.08171  0.08171  0.25001  1
 Li  Li7  1  0.75036  0.75036  0.25609  1
 Mn  Mn1  1  0.33930  0.33930  0.99642  1
 Mn  Mn2  1  0.66070  0.66070  0.00358  1
 O  O1  1  0.37607  0.37607  0.60601  1
 O  O2  1  0.20943  0.20943  0.11111  1
 O  O3  1  0.04292  0.04292  0.60897  1
 O  O4  1  0.28974  0.28974  0.39128  1
 O  O5  1  0.62393  0.62393  0.39399  1
 O  O6  1  0.95708  0.95708  0.39103  1
 O  O7  1  0.13047  0.13047  0.88568  1
 O  O8  1  0.79057  0.79057  0.88889  1
 O  O9  1  0.86953  0.86953  0.11432  1
 O  O10  1  0.71026  0.71026  0.60872  1
 O  O11  1  0.44862  0.44862  0.87958  1
 O  O12  1  0.55138  0.55138  0.12042  1
