CIF file written using JARVIS-Tools package.
data_Li3Co2O5
_symmetry_space_group_name_H-M  'C2/m'
_cell_length_a       11.7345
_cell_length_b       11.7345
_cell_length_c       4.93571
_cell_angle_alpha    85.2121
_cell_angle_beta     85.2121
_cell_angle_gamma    13.8483

_symmetry_Int_Tables_number  12
_chemical_formula_structural  Li3Co2O5
_chemical_formula_sum  Li6Co4O0
_cell_volume  162.09810838352473
_cell_formula_units_Z  2
loop_
  _symmetry_equiv_pos_site_id
 _symmetry_equiv_pos_as_xyz
 1  'x, y, z'
loop_
 _atom_site_type_symbol
 _atom_site_label
 _atom_site_symmetry_multiplicity
 _atom_site_fract_x
 _atom_site_fract_y
 _atom_site_fract_z
 _atom_site_fract_occupancy
 Co  Co1  1  0.90283  0.90283  0.19339  1
 Co  Co2  1  0.09717  0.09717  0.80661  1
 Co  Co3  1  0.70006  0.70006  0.60164  1
 Co  Co4  1  0.29994  0.29994  0.39836  1
 Li  Li1  1  0.50000  0.50000  -0.00000  1
 Li  Li2  1  0.00000  0.00000  0.50000  1
 Li  Li3  1  0.19842  0.19842  0.10230  1
 Li  Li4  1  0.80158  0.80158  0.89770  1
 Li  Li5  1  0.40309  0.40309  0.70318  1
 Li  Li6  1  0.59691  0.59691  0.29682  1
 O  O1  1  0.84636  0.84636  0.51683  1
 O  O2  1  0.24805  0.24805  0.72442  1
 O  O3  1  0.94557  0.94557  0.86957  1
 O  O4  1  0.35174  0.35174  0.07844  1
 O  O5  1  0.75195  0.75195  0.27558  1
 O  O6  1  0.15364  0.15364  0.48317  1
 O  O7  1  0.55598  0.55598  0.66386  1
 O  O8  1  0.05443  0.05443  0.13043  1
 O  O9  1  0.44402  0.44402  0.33614  1
 O  O10  1  0.64826  0.64826  0.92156  1
