CIF file written using JARVIS-Tools package.
data_Ca2ZrO3
_symmetry_space_group_name_H-M  'I4/mmm'
_cell_length_a       7.47983
_cell_length_b       3.31683
_cell_length_c       7.47987
_cell_angle_alpha    77.1894
_cell_angle_beta     25.6199
_cell_angle_gamma    77.1907

_symmetry_Int_Tables_number  139
_chemical_formula_structural  Ca2ZrO3
_chemical_formula_sum  Ca2ZrO3
_cell_volume  78.13858875458415
_cell_formula_units_Z  1
loop_
  _symmetry_equiv_pos_site_id
 _symmetry_equiv_pos_as_xyz
 1  'x, y, z'
loop_
 _atom_site_type_symbol
 _atom_site_label
 _atom_site_symmetry_multiplicity
 _atom_site_fract_x
 _atom_site_fract_y
 _atom_site_fract_z
 _atom_site_fract_occupancy
 Ca  Ca1  1  0.90003  0.56963  0.43037  1
 Ca  Ca2  1  0.56963  0.90003  0.09997  1
 O  O1  1  0.39749  0.07219  0.92782  1
 O  O2  1  0.07219  0.39749  0.60251  1
 O  O3  1  0.73488  0.73488  0.26512  1
 Zr  Zr1  1  0.23487  0.23487  0.76513  1
