CIF file written using JARVIS-Tools package.
data_Li4Co3O7
_symmetry_space_group_name_H-M  'C2/m'
_cell_length_a       16.3371
_cell_length_b       16.3371
_cell_length_c       4.92845
_cell_angle_alpha    92.3903
_cell_angle_beta     92.3903
_cell_angle_gamma    9.951

_symmetry_Int_Tables_number  12
_chemical_formula_structural  Li4Co3O7
_chemical_formula_sum  Li8Co6O4
_cell_volume  227.11001521276052
_cell_formula_units_Z  2
loop_
  _symmetry_equiv_pos_site_id
 _symmetry_equiv_pos_as_xyz
 1  'x, y, z'
loop_
 _atom_site_type_symbol
 _atom_site_label
 _atom_site_symmetry_multiplicity
 _atom_site_fract_x
 _atom_site_fract_y
 _atom_site_fract_z
 _atom_site_fract_occupancy
 Co  Co1  1  0.85701  0.85701  0.77984  1
 Co  Co2  1  0.43027  0.43027  0.63534  1
 Co  Co3  1  0.56973  0.56973  0.36466  1
 Co  Co4  1  0.14299  0.14299  0.22016  1
 Co  Co5  1  0.28566  0.28566  0.92614  1
 Co  Co6  1  0.71434  0.71434  0.07386  1
 Li  Li1  1  0.00000  -0.00000  0.50000  1
 Li  Li2  1  0.93071  0.93071  0.14535  1
 Li  Li3  1  0.50000  0.50000  0.00000  1
 Li  Li4  1  0.64126  0.64126  0.72082  1
 Li  Li5  1  0.21385  0.21385  0.57422  1
 Li  Li6  1  0.78615  0.78615  0.42578  1
 Li  Li7  1  0.35874  0.35874  0.27918  1
 Li  Li8  1  0.06929  0.06929  0.85465  1
 O  O1  1  0.46098  0.46098  0.33802  1
 O  O2  1  0.95981  0.95981  0.80271  1
 O  O3  1  0.39012  0.39012  0.92688  1
 O  O4  1  0.81971  0.81971  0.07501  1
 O  O5  1  0.24864  0.24864  0.22228  1
 O  O6  1  0.53902  0.53902  0.66198  1
 O  O7  1  0.32247  0.32247  0.62968  1
 O  O8  1  0.89397  0.89397  0.48977  1
 O  O9  1  0.75136  0.75136  0.77772  1
 O  O10  1  0.18029  0.18029  0.92499  1
 O  O11  1  0.60988  0.60988  0.07312  1
 O  O12  1  0.67753  0.67753  0.37032  1
 O  O13  1  0.10603  0.10603  0.51023  1
 O  O14  1  0.04019  0.04019  0.19729  1
