CIF file written using JARVIS-Tools package.
data_AsHPbO4
_symmetry_space_group_name_H-M  'Pc'
_cell_length_a       6.67693
_cell_length_b       4.9118
_cell_length_c       5.87757
_cell_angle_alpha    86.1069
_cell_angle_beta     90
_cell_angle_gamma    90

_symmetry_Int_Tables_number  7
_chemical_formula_structural  AsHPbO4
_chemical_formula_sum  As2H2Pb2O8
_cell_volume  192.31436401386014
_cell_formula_units_Z  2
loop_
  _symmetry_equiv_pos_site_id
 _symmetry_equiv_pos_as_xyz
 1  'x, y, z'
loop_
 _atom_site_type_symbol
 _atom_site_label
 _atom_site_symmetry_multiplicity
 _atom_site_fract_x
 _atom_site_fract_y
 _atom_site_fract_z
 _atom_site_fract_occupancy
 As  As1  1  0.79654  0.50920  0.25865  1
 As  As2  1  0.20346  0.50920  0.75865  1
 H  H1  1  0.52300  0.47771  0.01607  1
 H  H2  1  0.47700  0.47771  0.51607  1
 O  O1  1  0.92966  0.24754  0.39329  1
 O  O2  1  0.93397  0.74485  0.09576  1
 O  O3  1  0.06603  0.74485  0.59576  1
 O  O4  1  0.07034  0.24754  0.89329  1
 O  O5  1  0.63735  0.34248  0.06938  1
 O  O6  1  0.64088  0.66673  0.44198  1
 O  O7  1  0.35912  0.66673  0.94198  1
 O  O8  1  0.36265  0.34248  0.56938  1
 Pb  Pb1  1  0.21514  0.99548  0.23687  1
 Pb  Pb2  1  0.78486  0.99548  0.73687  1
