CIF file written using JARVIS-Tools package.
data_Li4MnCo2O7
_symmetry_space_group_name_H-M  'Cm'
_cell_length_a       9.54329
_cell_length_b       9.54329
_cell_length_c       9.48134
_cell_angle_alpha    65.0673
_cell_angle_beta     65.0673
_cell_angle_gamma    17.1373

_symmetry_Int_Tables_number  8
_chemical_formula_structural  Li4MnCo2O7
_chemical_formula_sum  Li8Mn2Co4O4
_cell_volume  230.162589622918
_cell_formula_units_Z  2
loop_
  _symmetry_equiv_pos_site_id
 _symmetry_equiv_pos_as_xyz
 1  'x, y, z'
loop_
 _atom_site_type_symbol
 _atom_site_label
 _atom_site_symmetry_multiplicity
 _atom_site_fract_x
 _atom_site_fract_y
 _atom_site_fract_z
 _atom_site_fract_occupancy
 Co  Co1  1  0.85799  0.85799  0.56805  1
 Co  Co2  1  0.14357  0.14357  0.42809  1
 Co  Co3  1  0.28464  0.28464  0.85740  1
 Co  Co4  1  0.57252  0.57252  0.71247  1
 Li  Li1  1  0.42856  0.42856  0.29501  1
 Li  Li2  1  0.64264  0.64264  0.92361  1
 Li  Li3  1  0.36023  0.36023  0.07446  1
 Li  Li4  1  0.21610  0.21610  0.64031  1
 Li  Li5  1  0.49563  0.49563  0.49458  1
 Li  Li6  1  0.79899  0.79899  0.35396  1
 Li  Li7  1  0.05793  0.05793  0.22955  1
 Li  Li8  1  0.92811  0.92811  0.77925  1
 Mn  Mn1  1  0.99711  0.99711  0.00675  1
 Mn  Mn2  1  0.71393  0.71393  0.14283  1
 O  O1  1  0.38344  0.38344  0.68088  1
 O  O2  1  0.67080  0.67080  0.53137  1
 O  O3  1  0.95857  0.95857  0.40718  1
 O  O4  1  0.24462  0.24462  0.24544  1
 O  O5  1  0.75653  0.75653  0.75574  1
 O  O6  1  0.04541  0.04541  0.60874  1
 O  O7  1  0.90002  0.90002  0.16074  1
 O  O8  1  0.61496  0.61496  0.32165  1
 O  O9  1  0.18310  0.18310  0.04086  1
 O  O10  1  0.47201  0.47201  0.89113  1
 O  O11  1  0.81353  0.81353  0.96321  1
 O  O12  1  0.10148  0.10148  0.81620  1
 O  O13  1  0.32373  0.32373  0.47796  1
 O  O14  1  0.53383  0.53383  0.09257  1
