CIF file written using JARVIS-Tools package.
data_CaO2
_symmetry_space_group_name_H-M  'P-1'
_cell_length_a       3.95693
_cell_length_b       3.51168
_cell_length_c       3.6622
_cell_angle_alpha    100.855
_cell_angle_beta     120.593
_cell_angle_gamma    60.1124

_symmetry_Int_Tables_number  2
_chemical_formula_structural  CaO2
_chemical_formula_sum  CaO2
_cell_volume  37.83321837547102
_cell_formula_units_Z  1
loop_
  _symmetry_equiv_pos_site_id
 _symmetry_equiv_pos_as_xyz
 1  'x, y, z'
loop_
 _atom_site_type_symbol
 _atom_site_label
 _atom_site_symmetry_multiplicity
 _atom_site_fract_x
 _atom_site_fract_y
 _atom_site_fract_z
 _atom_site_fract_occupancy
 Ca  Ca1  1  0.05338  -0.17725  0.07781  1
 O  O1  1  0.25121  0.14351  0.75443  1
 O  O2  1  -0.14444  0.50204  0.40122  1
