CIF file written using JARVIS-Tools package.
data_Ba3BiRuIrO9
_symmetry_space_group_name_H-M  'Cc'
_cell_length_a       5.97236
_cell_length_b       5.97236
_cell_length_c       14.8953
_cell_angle_alpha    88.9747
_cell_angle_beta     88.9747
_cell_angle_gamma    119.717

_symmetry_Int_Tables_number  9
_chemical_formula_structural  Ba3BiRuIrO9
_chemical_formula_sum  Ba6Bi2Ru2Ir2O8
_cell_volume  461.1341313712156
_cell_formula_units_Z  2
loop_
  _symmetry_equiv_pos_site_id
 _symmetry_equiv_pos_as_xyz
 1  'x, y, z'
loop_
 _atom_site_type_symbol
 _atom_site_label
 _atom_site_symmetry_multiplicity
 _atom_site_fract_x
 _atom_site_fract_y
 _atom_site_fract_z
 _atom_site_fract_occupancy
 Ba  Ba1  1  0.34011  0.67380  0.40580  1
 Ba  Ba2  1  0.32573  0.65683  0.09640  1
 Ba  Ba3  1  0.65683  0.32573  0.59640  1
 Ba  Ba4  1  0.67380  0.34011  0.90580  1
 Ba  Ba5  1  0.99425  0.00629  0.24994  1
 Ba  Ba6  1  0.00629  0.99425  0.74994  1
 Bi  Bi1  1  0.99862  0.99941  0.50066  1
 Bi  Bi2  1  0.99941  0.99862  0.00066  1
 Ir  Ir1  1  0.64940  0.31922  0.16628  1
 Ir  Ir2  1  0.31922  0.64940  0.66628  1
 O  O1  1  0.13456  0.31884  0.60104  1
 O  O2  1  0.31884  0.13456  0.10104  1
 O  O3  1  0.86194  0.67731  0.39703  1
 O  O4  1  0.78659  0.59795  0.07043  1
 O  O5  1  0.02674  0.50416  0.76279  1
 O  O6  1  0.59795  0.78659  0.57043  1
 O  O7  1  0.40396  0.21689  0.42608  1
 O  O8  1  0.21689  0.40396  0.92608  1
 O  O9  1  0.86621  0.21308  0.40299  1
 O  O10  1  0.49475  0.50869  0.75145  1
 O  O11  1  0.13219  0.78765  0.59397  1
 O  O12  1  0.21308  0.86621  0.90299  1
 O  O13  1  0.50869  0.49475  0.25145  1
 O  O14  1  0.67731  0.86194  0.89703  1
 O  O15  1  0.97491  0.49750  0.23998  1
 O  O16  1  0.50416  0.02674  0.26279  1
 O  O17  1  0.78765  0.13219  0.09397  1
 O  O18  1  0.49750  0.97491  0.73998  1
 Ru  Ru1  1  0.35097  0.68145  0.83515  1
 Ru  Ru2  1  0.68145  0.35097  0.33515  1
