CIF file written using JARVIS-Tools package.
data_SnH24C13O6
_symmetry_space_group_name_H-M  'P1'
_cell_length_a       5.04793
_cell_length_b       8.60664
_cell_length_c       9.6025
_cell_angle_alpha    110.906
_cell_angle_beta     95.3422
_cell_angle_gamma    107.337

_symmetry_Int_Tables_number  1
_chemical_formula_structural  SnH24C13O6
_chemical_formula_sum  SnH24C3O6
_cell_volume  362.5939876158905
_cell_formula_units_Z  1
loop_
  _symmetry_equiv_pos_site_id
 _symmetry_equiv_pos_as_xyz
 1  'x, y, z'
loop_
 _atom_site_type_symbol
 _atom_site_label
 _atom_site_symmetry_multiplicity
 _atom_site_fract_x
 _atom_site_fract_y
 _atom_site_fract_z
 _atom_site_fract_occupancy
 C  C1  1  0.48289  0.07459  0.01440  1
 C  C2  1  0.34320  0.99699  0.84396  1
 C  C3  1  0.49824  0.52786  0.69255  1
 C  C4  1  0.36140  0.20660  0.11672  1
 C  C5  1  0.01540  0.90953  0.79878  1
 C  C6  1  0.45250  0.32849  0.61546  1
 C  C7  1  0.60205  0.63299  0.59463  1
 C  C8  1  0.91983  0.74834  0.64455  1
 C  C9  1  0.64824  0.02324  0.35962  1
 C  C10  1  0.73139  0.29157  0.61273  1
 C  C11  1  0.66523  0.83997  0.29859  1
 C  C12  1  0.35356  0.34791  0.06055  1
 C  C13  1  0.69540  0.09385  0.53604  1
 H  H1  1  0.71214  0.14211  0.03044  1
 H  H2  1  0.29892  0.54142  0.72217  1
 H  H3  1  0.65074  0.58463  0.80306  1
 H  H4  1  0.45536  0.96552  0.05219  1
 H  H5  1  0.32043  0.27109  0.49817  1
 H  H6  1  0.49775  0.27584  0.23298  1
 H  H7  1  0.93238  0.86731  0.88681  1
 H  H8  1  0.86342  0.36411  0.55471  1
 H  H9  1  0.01953  0.76930  0.01186  1
 H  H10  1  0.85218  0.34674  0.73189  1
 H  H11  1  0.51584  0.01128  0.56535  1
 H  H12  1  0.88748  0.07534  0.58016  1
 H  H13  1  0.81282  0.11264  0.32800  1
 H  H14  1  0.43709  0.01549  0.31029  1
 H  H15  1  0.98266  0.79537  0.55546  1
 H  H16  1  0.91855  0.00697  0.79390  1
 H  H17  1  0.56211  0.53934  0.47465  1
 H  H18  1  0.47875  0.71926  0.59455  1
 H  H19  1  0.12028  0.54398  0.39720  1
 H  H20  1  0.32938  0.25953  0.67872  1
 H  H21  1  0.04181  0.66328  0.65063  1
 H  H22  1  0.43374  0.89711  0.78494  1
 H  H23  1  0.41008  0.10179  0.80056  1
 H  H24  1  0.14431  0.13940  0.12394  1
 O  O1  1  0.57677  0.44715  0.03825  1
 O  O2  1  0.94324  0.48863  0.31899  1
 O  O3  1  0.45339  0.70460  0.28354  1
 O  O4  1  0.90648  0.82795  0.27429  1
 O  O5  1  0.11267  0.36309  0.02999  1
 O  O6  1  0.11448  0.68482  0.00833  1
 Sn  Sn1  1  0.00584  0.58683  0.16105  1
