CIF file written using JARVIS-Tools package.
data_Ba2SrP2O8
_symmetry_space_group_name_H-M  'R-3m'
_cell_length_a       7.65611
_cell_length_b       7.65611
_cell_length_c       7.65611
_cell_angle_alpha    42.6759
_cell_angle_beta     42.6759
_cell_angle_gamma    42.6758

_symmetry_Int_Tables_number  166
_chemical_formula_structural  Ba2SrP2O8
_chemical_formula_sum  Ba2SrP2O8
_cell_volume  186.778190179521
_cell_formula_units_Z  1
loop_
  _symmetry_equiv_pos_site_id
 _symmetry_equiv_pos_as_xyz
 1  'x, y, z'
loop_
 _atom_site_type_symbol
 _atom_site_label
 _atom_site_symmetry_multiplicity
 _atom_site_fract_x
 _atom_site_fract_y
 _atom_site_fract_z
 _atom_site_fract_occupancy
 Ba  Ba1  1  0.20675  0.20675  0.20675  1
 Ba  Ba2  1  0.79325  0.79325  0.79325  1
 O  O1  1  0.27629  0.73429  0.27629  1
 O  O2  1  0.27629  0.27629  0.73429  1
 O  O3  1  0.73429  0.27629  0.27629  1
 O  O4  1  0.72371  0.26571  0.72371  1
 O  O5  1  0.72371  0.72371  0.26571  1
 O  O6  1  0.26571  0.72371  0.72371  1
 O  O7  1  0.32985  0.32985  0.32985  1
 O  O8  1  0.67015  0.67015  0.67015  1
 P  P1  1  0.40358  0.40358  0.40358  1
 P  P2  1  0.59642  0.59642  0.59642  1
 Sr  Sr1  1  0.00000  0.00000  0.00000  1
