CIF file written using JARVIS-Tools package.
data_Li4MnCo2O7
_symmetry_space_group_name_H-M  'Cm'
_cell_length_a       9.54235
_cell_length_b       9.54235
_cell_length_c       9.48721
_cell_angle_alpha    65.0105
_cell_angle_beta     65.0105
_cell_angle_gamma    17.1459

_symmetry_Int_Tables_number  8
_chemical_formula_structural  Li4MnCo2O7
_chemical_formula_sum  Li8Mn2Co4O4
_cell_volume  230.26289366492156
_cell_formula_units_Z  2
loop_
  _symmetry_equiv_pos_site_id
 _symmetry_equiv_pos_as_xyz
 1  'x, y, z'
loop_
 _atom_site_type_symbol
 _atom_site_label
 _atom_site_symmetry_multiplicity
 _atom_site_fract_x
 _atom_site_fract_y
 _atom_site_fract_z
 _atom_site_fract_occupancy
 Co  Co1  1  0.85783  0.85783  0.57089  1
 Co  Co2  1  0.42915  0.42915  0.28516  1
 Co  Co3  1  0.28470  0.28470  0.86171  1
 Co  Co4  1  0.56996  0.56996  0.71554  1
 Li  Li1  1  0.71385  0.71385  0.13485  1
 Li  Li2  1  0.65049  0.65049  0.93343  1
 Li  Li3  1  0.34257  0.34257  0.07677  1
 Li  Li4  1  0.21579  0.21579  0.64930  1
 Li  Li5  1  0.49814  0.49814  0.50017  1
 Li  Li6  1  0.78644  0.78644  0.35307  1
 Li  Li7  1  0.08343  0.08343  0.20224  1
 Li  Li8  1  0.92471  0.92471  0.78391  1
 Mn  Mn1  1  0.99941  0.99941  0.00055  1
 Mn  Mn2  1  0.14594  0.14594  0.42230  1
 O  O1  1  0.38633  0.38633  0.67357  1
 O  O2  1  0.67020  0.67020  0.53913  1
 O  O3  1  0.95700  0.95700  0.38763  1
 O  O4  1  0.24308  0.24308  0.26986  1
 O  O5  1  0.75873  0.75873  0.74957  1
 O  O6  1  0.04141  0.04141  0.61342  1
 O  O7  1  0.90027  0.90027  0.17887  1
 O  O8  1  0.60881  0.60881  0.33724  1
 O  O9  1  0.18407  0.18407  0.02395  1
 O  O10  1  0.46940  0.46940  0.89722  1
 O  O11  1  0.81876  0.81876  0.95188  1
 O  O12  1  0.09871  0.09871  0.81938  1
 O  O13  1  0.33070  0.33070  0.46575  1
 O  O14  1  0.53011  0.53011  0.10262  1
