CIF file written using JARVIS-Tools package.
data_Li7Mn2Co3O12
_symmetry_space_group_name_H-M  'P2/m'
_cell_length_a       2.84864
_cell_length_b       4.91926
_cell_length_c       14.1923
_cell_angle_alpha    90.6041
_cell_angle_beta     90
_cell_angle_gamma    90

_symmetry_Int_Tables_number  10
_chemical_formula_structural  Li7Mn2Co3O12
_chemical_formula_sum  Li7Mn2Co3O2
_cell_volume  198.86891871169595
_cell_formula_units_Z  1
loop_
  _symmetry_equiv_pos_site_id
 _symmetry_equiv_pos_as_xyz
 1  'x, y, z'
loop_
 _atom_site_type_symbol
 _atom_site_label
 _atom_site_symmetry_multiplicity
 _atom_site_fract_x
 _atom_site_fract_y
 _atom_site_fract_z
 _atom_site_fract_occupancy
 Co  Co1  1  0.00000  0.00000  0.50000  1
 Co  Co2  1  0.50000  0.83006  0.83388  1
 Co  Co3  1  0.50000  0.16994  0.16612  1
 Li  Li1  1  0.50000  0.50000  0.50000  1
 Li  Li2  1  0.00000  0.00000  0.00000  1
 Li  Li3  1  0.50000  0.83812  0.34772  1
 Li  Li4  1  0.00000  0.34946  0.35549  1
 Li  Li5  1  0.50000  0.50000  0.00000  1
 Li  Li6  1  0.50000  0.16188  0.65228  1
 Li  Li7  1  0.00000  0.65054  0.64451  1
 Mn  Mn1  1  0.00000  0.67031  0.16762  1
 Mn  Mn2  1  0.00000  0.32969  0.83238  1
 O  O1  1  0.50000  0.83326  0.09094  1
 O  O2  1  0.50000  0.49620  0.76145  1
 O  O3  1  0.50000  0.15469  0.42576  1
 O  O4  1  0.00000  0.66135  0.90818  1
 O  O5  1  0.00000  0.30557  0.57872  1
 O  O6  1  0.50000  0.84531  0.57424  1
 O  O7  1  0.50000  0.16674  0.90906  1
 O  O8  1  0.50000  0.50380  0.23855  1
 O  O9  1  0.00000  0.99618  0.76399  1
 O  O10  1  0.00000  0.69443  0.42128  1
 O  O11  1  0.00000  0.00382  0.23601  1
 O  O12  1  0.00000  0.33865  0.09182  1
