CIF file written using JARVIS-Tools package.
data_Sm2MgSe4
_symmetry_space_group_name_H-M  'Pnma'
_cell_length_a       4.07568
_cell_length_b       13.3468
_cell_length_c       14.2757
_cell_angle_alpha    90
_cell_angle_beta     90
_cell_angle_gamma    90

_symmetry_Int_Tables_number  62
_chemical_formula_structural  Sm2MgSe4
_chemical_formula_sum  Sm8Mg4Se6
_cell_volume  776.5581680188994
_cell_formula_units_Z  4
loop_
  _symmetry_equiv_pos_site_id
 _symmetry_equiv_pos_as_xyz
 1  'x, y, z'
loop_
 _atom_site_type_symbol
 _atom_site_label
 _atom_site_symmetry_multiplicity
 _atom_site_fract_x
 _atom_site_fract_y
 _atom_site_fract_z
 _atom_site_fract_occupancy
 Mg  Mg1  1  0.75000  0.60884  0.04114  1
 Mg  Mg2  1  0.25000  0.39116  0.95886  1
 Mg  Mg3  1  0.25000  0.89116  0.54114  1
 Mg  Mg4  1  0.75000  0.10884  0.45886  1
 Se  Se1  1  0.75000  0.26380  0.01243  1
 Se  Se2  1  0.75000  0.00370  0.61654  1
 Se  Se3  1  0.25000  0.23620  0.51243  1
 Se  Se4  1  0.25000  0.49630  0.11654  1
 Se  Se5  1  0.75000  0.50370  0.88346  1
 Se  Se6  1  0.25000  0.02908  0.88253  1
 Se  Se7  1  0.75000  0.97092  0.11747  1
 Se  Se8  1  0.25000  0.99630  0.38346  1
 Se  Se9  1  0.25000  0.52908  0.61747  1
 Se  Se10  1  0.25000  0.22409  0.25034  1
 Se  Se11  1  0.75000  0.77591  0.74966  1
 Se  Se12  1  0.75000  0.76380  0.48757  1
 Se  Se13  1  0.25000  0.72409  0.24966  1
 Se  Se14  1  0.75000  0.47092  0.38253  1
 Se  Se15  1  0.25000  0.73620  0.98757  1
 Se  Se16  1  0.75000  0.27591  0.75034  1
 Sm  Sm1  1  0.25000  0.63808  0.79597  1
 Sm  Sm2  1  0.75000  0.36192  0.20403  1
 Sm  Sm3  1  0.75000  0.86192  0.29597  1
 Sm  Sm4  1  0.25000  0.13808  0.70403  1
 Sm  Sm5  1  0.25000  0.61818  0.42499  1
 Sm  Sm6  1  0.75000  0.38182  0.57501  1
 Sm  Sm7  1  0.75000  0.88182  0.92499  1
 Sm  Sm8  1  0.25000  0.11818  0.07501  1
