CIF file written using JARVIS-Tools package.
data_CdF2
_symmetry_space_group_name_H-M  'P-1'
_cell_length_a       3.70317
_cell_length_b       3.7551
_cell_length_c       3.52128
_cell_angle_alpha    66.3401
_cell_angle_beta     66.8282
_cell_angle_gamma    66.2804

_symmetry_Int_Tables_number  2
_chemical_formula_structural  CdF2
_chemical_formula_sum  CdF2
_cell_volume  39.45791749198221
_cell_formula_units_Z  1
loop_
  _symmetry_equiv_pos_site_id
 _symmetry_equiv_pos_as_xyz
 1  'x, y, z'
loop_
 _atom_site_type_symbol
 _atom_site_label
 _atom_site_symmetry_multiplicity
 _atom_site_fract_x
 _atom_site_fract_y
 _atom_site_fract_z
 _atom_site_fract_occupancy
 Cd  Cd1  1  0.07934  0.07716  0.08294  1
 F  F1  1  0.81638  0.81279  0.82795  1
 F  F2  1  0.34232  0.34152  0.33792  1
