CIF file written using JARVIS-Tools package.
data_Li7Mn2Co3O12
_symmetry_space_group_name_H-M  'P2/m'
_cell_length_a       2.84781
_cell_length_b       8.01973
_cell_length_c       9.49869
_cell_angle_alpha    65.3581
_cell_angle_beta     90
_cell_angle_gamma    90

_symmetry_Int_Tables_number  10
_chemical_formula_structural  Li7Mn2Co3O12
_chemical_formula_sum  Li7Mn2Co3O2
_cell_volume  197.1813072803276
_cell_formula_units_Z  1
loop_
  _symmetry_equiv_pos_site_id
 _symmetry_equiv_pos_as_xyz
 1  'x, y, z'
loop_
 _atom_site_type_symbol
 _atom_site_label
 _atom_site_symmetry_multiplicity
 _atom_site_fract_x
 _atom_site_fract_y
 _atom_site_fract_z
 _atom_site_fract_occupancy
 Co  Co1  1  0.00000  0.50000  0.00000  1
 Co  Co2  1  0.50000  0.33492  0.83209  1
 Co  Co3  1  0.50000  0.66508  0.16791  1
 Li  Li1  1  0.50000  0.00000  0.50000  1
 Li  Li2  1  0.50000  0.50000  0.50000  1
 Li  Li3  1  0.00000  0.31977  0.33471  1
 Li  Li4  1  0.50000  0.83079  0.82957  1
 Li  Li5  1  0.00000  0.00000  0.00000  1
 Li  Li6  1  0.00000  0.68023  0.66529  1
 Li  Li7  1  0.50000  0.16921  0.17043  1
 Mn  Mn1  1  0.00000  0.15870  0.66474  1
 Mn  Mn2  1  0.00000  0.84130  0.33526  1
 O  O1  1  0.00000  0.40101  0.68111  1
 O  O2  1  0.00000  0.06961  0.32739  1
 O  O3  1  0.00000  0.73062  0.01815  1
 O  O4  1  0.50000  0.09930  0.82142  1
 O  O5  1  0.50000  0.75628  0.48254  1
 O  O6  1  0.00000  0.26938  0.98185  1
 O  O7  1  0.00000  0.59899  0.31889  1
 O  O8  1  0.00000  0.93039  0.67261  1
 O  O9  1  0.50000  0.56499  0.84875  1
 O  O10  1  0.50000  0.24372  0.51746  1
 O  O11  1  0.50000  0.43501  0.15125  1
 O  O12  1  0.50000  0.90070  0.17858  1
