CIF file written using JARVIS-Tools package.
data_TiH26C14O4
_symmetry_space_group_name_H-M  'P1'
_cell_length_a       4.85905
_cell_length_b       7.69709
_cell_length_c       10.5659
_cell_angle_alpha    71.9821
_cell_angle_beta     86.5459
_cell_angle_gamma    75.3169

_symmetry_Int_Tables_number  1
_chemical_formula_structural  TiH26C14O4
_chemical_formula_sum  TiH26C4O4
_cell_volume  363.4487802324289
_cell_formula_units_Z  1
loop_
  _symmetry_equiv_pos_site_id
 _symmetry_equiv_pos_as_xyz
 1  'x, y, z'
loop_
 _atom_site_type_symbol
 _atom_site_label
 _atom_site_symmetry_multiplicity
 _atom_site_fract_x
 _atom_site_fract_y
 _atom_site_fract_z
 _atom_site_fract_occupancy
 C  C1  1  0.33724  0.88583  0.35991  1
 C  C2  1  0.84441  0.85573  0.06128  1
 C  C3  1  0.98068  0.42941  0.66211  1
 C  C4  1  0.71205  0.90100  0.92203  1
 C  C5  1  0.05172  0.07931  0.77338  1
 C  C6  1  0.82184  0.61269  0.56023  1
 C  C7  1  0.93024  0.90437  0.81045  1
 C  C8  1  0.01484  0.65417  0.11289  1
 C  C9  1  0.38391  0.89242  0.50168  1
 C  C10  1  0.52118  0.69832  0.59891  1
 C  C11  1  0.20541  0.08007  0.26892  1
 C  C12  1  0.42274  0.39400  0.36335  1
 C  C13  1  0.85311  0.25949  0.68554  1
 C  C14  1  0.55224  0.38944  0.97809  1
 H  H1  1  0.82787  0.90063  0.72121  1
 H  H2  1  0.10398  0.77477  0.83989  1
 H  H3  1  0.99993  0.45509  0.75806  1
 H  H4  1  0.81588  0.58626  0.46377  1
 H  H5  1  0.94608  0.71869  0.54469  1
 H  H6  1  0.64261  0.28535  0.73095  1
 H  H7  1  0.67139  0.87964  0.13033  1
 H  H8  1  0.38545  0.60130  0.60758  1
 H  H9  1  0.47787  0.51443  0.38075  1
 H  H10  1  0.53141  0.26401  0.43926  1
 H  H11  1  0.70665  0.26191  0.96830  1
 H  H12  1  0.33807  0.39081  0.94975  1
 H  H13  1  0.53008  0.71436  0.69863  1
 H  H14  1  0.19206  0.41051  0.36867  1
 H  H15  1  0.52087  0.98872  0.49559  1
 H  H16  1  0.10590  0.10496  0.86482  1
 H  H17  1  0.17767  0.95340  0.53937  1
 H  H18  1  0.54281  0.83141  0.31955  1
 H  H19  1  0.81957  0.24005  0.58895  1
 H  H20  1  0.61665  0.51465  0.91438  1
 H  H21  1  0.19920  0.38992  0.62726  1
 H  H22  1  0.25416  0.05236  0.72140  1
 H  H23  1  0.56006  0.03947  0.90100  1
 H  H24  1  0.58669  0.79882  0.92670  1
 H  H25  1  0.19709  0.79309  0.36300  1
 H  H26  1  0.98396  0.94817  0.06020  1
 O  O1  1  0.87417  0.52378  0.15075  1
 O  O2  1  0.36357  0.18439  0.20699  1
 O  O3  1  0.28118  0.61751  0.11678  1
 O  O4  1  0.93131  0.13237  0.25944  1
 Ti  Ti1  1  0.61816  0.36371  0.18190  1
