CIF file written using JARVIS-Tools package.
data_NbCr3Ag2S8
_symmetry_space_group_name_H-M  'P222_1'
_cell_length_a       7.25241
_cell_length_b       7.30061
_cell_length_c       10.194
_cell_angle_alpha    90
_cell_angle_beta     90
_cell_angle_gamma    90

_symmetry_Int_Tables_number  17
_chemical_formula_structural  NbCr3Ag2S8
_chemical_formula_sum  Nb2Cr6Ag4S6
_cell_volume  539.743947284108
_cell_formula_units_Z  2
loop_
  _symmetry_equiv_pos_site_id
 _symmetry_equiv_pos_as_xyz
 1  'x, y, z'
loop_
 _atom_site_type_symbol
 _atom_site_label
 _atom_site_symmetry_multiplicity
 _atom_site_fract_x
 _atom_site_fract_y
 _atom_site_fract_z
 _atom_site_fract_occupancy
 Ag  Ag1  1  0.25000  0.00000  0.64200  1
 Ag  Ag2  1  0.75000  0.00000  0.35800  1
 Ag  Ag3  1  0.25000  0.50000  0.88385  1
 Ag  Ag4  1  0.75000  0.50000  0.11615  1
 Cr  Cr1  1  0.25455  0.75286  0.24715  1
 Cr  Cr2  1  0.74545  0.75286  0.75285  1
 Cr  Cr3  1  0.24545  0.24714  0.24715  1
 Cr  Cr4  1  0.75455  0.24714  0.75285  1
 Cr  Cr5  1  0.00000  0.99776  0.00000  1
 Cr  Cr6  1  0.50000  0.00224  0.00000  1
 Nb  Nb1  1  0.00000  0.46106  0.50000  1
 Nb  Nb2  1  0.50000  0.53894  0.50000  1
 S  S1  1  0.74787  0.78200  0.98532  1
 S  S2  1  0.02773  0.50487  0.26021  1
 S  S3  1  0.73802  0.26372  0.51068  1
 S  S4  1  0.24787  0.21800  0.01468  1
 S  S5  1  0.03480  0.99702  0.23371  1
 S  S6  1  0.97227  0.50487  0.73979  1
 S  S7  1  0.23802  0.73628  0.48932  1
 S  S8  1  0.52773  0.49513  0.73979  1
 S  S9  1  0.26198  0.26372  0.48932  1
 S  S10  1  0.75213  0.21800  0.98532  1
 S  S11  1  0.25213  0.78200  0.01468  1
 S  S12  1  0.76198  0.73628  0.51068  1
 S  S13  1  0.53480  0.00298  0.76629  1
 S  S14  1  0.46520  0.00298  0.23371  1
 S  S15  1  0.47227  0.49513  0.26021  1
 S  S16  1  0.96520  0.99702  0.76629  1
