CIF file written using JARVIS-Tools package.
data_ZnH4C4O4
_symmetry_space_group_name_H-M  'P-1'
_cell_length_a       3.46378
_cell_length_b       4.48718
_cell_length_c       7.27927
_cell_angle_alpha    93.0262
_cell_angle_beta     89.9291
_cell_angle_gamma    107.002

_symmetry_Int_Tables_number  2
_chemical_formula_structural  ZnH4C4O4
_chemical_formula_sum  ZnH4C4O4
_cell_volume  108.0311850600712
_cell_formula_units_Z  1
loop_
  _symmetry_equiv_pos_site_id
 _symmetry_equiv_pos_as_xyz
 1  'x, y, z'
loop_
 _atom_site_type_symbol
 _atom_site_label
 _atom_site_symmetry_multiplicity
 _atom_site_fract_x
 _atom_site_fract_y
 _atom_site_fract_z
 _atom_site_fract_occupancy
 C  C1  1  0.02915  0.32895  0.51528  1
 C  C2  1  0.86836  0.22147  0.70163  1
 C  C3  1  0.85108  0.48053  0.84190  1
 C  C4  1  0.69026  0.37307  0.02826  1
 H  H1  1  0.57488  0.04691  0.67844  1
 H  H2  1  0.06185  0.08930  0.75410  1
 H  H3  1  0.65762  0.61271  0.78943  1
 H  H4  1  0.14458  0.65507  0.86510  1
 O  O1  1  0.95884  0.12387  0.37935  1
 O  O2  1  0.23464  0.61213  0.50285  1
 O  O3  1  0.76056  0.57816  0.16418  1
 O  O4  1  0.48473  0.08989  0.04068  1
 Zn  Zn1  1  0.35966  0.85104  0.27178  1
