CIF file written using JARVIS-Tools package.
data_Cd2F
_symmetry_space_group_name_H-M  'Pmmm'
_cell_length_a       3.05863
_cell_length_b       2.99226
_cell_length_c       6.77998
_cell_angle_alpha    90
_cell_angle_beta     89.9553
_cell_angle_gamma    90

_symmetry_Int_Tables_number  47
_chemical_formula_structural  Cd2F
_chemical_formula_sum  Cd2F
_cell_volume  62.05182849874926
_cell_formula_units_Z  1
loop_
  _symmetry_equiv_pos_site_id
 _symmetry_equiv_pos_as_xyz
 1  'x, y, z'
loop_
 _atom_site_type_symbol
 _atom_site_label
 _atom_site_symmetry_multiplicity
 _atom_site_fract_x
 _atom_site_fract_y
 _atom_site_fract_z
 _atom_site_fract_occupancy
 Cd  Cd1  1  -0.03250  0.00000  -0.14506  1
 Cd  Cd2  1  -0.03411  0.00000  0.41170  1
 F  F1  1  0.46661  0.00000  0.13336  1
