CIF file written using JARVIS-Tools package.
data_CdF3
_symmetry_space_group_name_H-M  'P1'
_cell_length_a       3.71985
_cell_length_b       4.50576
_cell_length_c       3.98739
_cell_angle_alpha    107.002
_cell_angle_beta     117.253
_cell_angle_gamma    87.3464

_symmetry_Int_Tables_number  1
_chemical_formula_structural  CdF3
_chemical_formula_sum  CdF3
_cell_volume  56.51362475860699
_cell_formula_units_Z  1
loop_
  _symmetry_equiv_pos_site_id
 _symmetry_equiv_pos_as_xyz
 1  'x, y, z'
loop_
 _atom_site_type_symbol
 _atom_site_label
 _atom_site_symmetry_multiplicity
 _atom_site_fract_x
 _atom_site_fract_y
 _atom_site_fract_z
 _atom_site_fract_occupancy
 Cd  Cd1  1  0.83047  0.56570  0.13981  1
 F  F1  1  0.88767  0.08338  0.23219  1
 F  F2  1  0.17858  0.31742  0.80694  1
 F  F3  1  0.52204  0.67782  0.53388  1
