CIF file written using JARVIS-Tools package.
data_CdF2
_symmetry_space_group_name_H-M  'Pmmm'
_cell_length_a       3.48773
_cell_length_b       3.35782
_cell_length_c       4.63526
_cell_angle_alpha    90
_cell_angle_beta     90
_cell_angle_gamma    90

_symmetry_Int_Tables_number  47
_chemical_formula_structural  CdF2
_chemical_formula_sum  CdF2
_cell_volume  54.284314641468356
_cell_formula_units_Z  1
loop_
  _symmetry_equiv_pos_site_id
 _symmetry_equiv_pos_as_xyz
 1  'x, y, z'
loop_
 _atom_site_type_symbol
 _atom_site_label
 _atom_site_symmetry_multiplicity
 _atom_site_fract_x
 _atom_site_fract_y
 _atom_site_fract_z
 _atom_site_fract_occupancy
 Cd  Cd1  1  0.46667  0.00000  0.00000  1
 F  F1  1  -0.03333  0.00000  0.73931  1
 F  F2  1  -0.03333  0.00000  0.26069  1
