CIF file written using JARVIS-Tools package.
data_CaH10C7O4
_symmetry_space_group_name_H-M  'P1'
_cell_length_a       4.37607
_cell_length_b       7.60653
_cell_length_c       11.3063
_cell_angle_alpha    95.843
_cell_angle_beta     93.2772
_cell_angle_gamma    99.8286

_symmetry_Int_Tables_number  1
_chemical_formula_structural  CaH10C7O4
_chemical_formula_sum  Ca2H20C4O8
_cell_volume  367.8296567284461
_cell_formula_units_Z  2
loop_
  _symmetry_equiv_pos_site_id
 _symmetry_equiv_pos_as_xyz
 1  'x, y, z'
loop_
 _atom_site_type_symbol
 _atom_site_label
 _atom_site_symmetry_multiplicity
 _atom_site_fract_x
 _atom_site_fract_y
 _atom_site_fract_z
 _atom_site_fract_occupancy
 C  C1  1  0.57946  0.70945  0.52312  1
 C  C2  1  0.50370  0.84076  0.09837  1
 C  C3  1  0.34286  0.21103  0.41881  1
 C  C4  1  0.46409  0.15725  0.64081  1
 C  C5  1  0.46409  0.65725  0.64081  1
 C  C6  1  0.32990  0.36177  0.98291  1
 C  C7  1  0.32990  0.86177  0.98291  1
 C  C8  1  0.57946  0.20945  0.52312  1
 C  C9  1  0.50370  0.34076  0.09837  1
 C  C10  1  0.34286  0.71103  0.41881  1
 C  C11  1  0.51359  0.26357  0.30956  1
 C  C12  1  0.51359  0.76357  0.30956  1
 C  C13  1  0.30616  0.27661  0.19824  1
 C  C14  1  0.30616  0.77661  0.19824  1
 Ca  Ca1  1  0.92721  0.50024  0.81948  1
 Ca  Ca2  1  0.92721  0.00024  0.81948  1
 H  H1  1  0.15958  0.64547  0.16735  1
 H  H2  1  0.15958  0.14547  0.16735  1
 H  H3  1  0.14538  0.36959  0.22026  1
 H  H4  1  0.65931  0.24586  0.07362  1
 H  H5  1  0.19259  0.07843  0.39820  1
 H  H6  1  0.19047  0.80737  0.44380  1
 H  H7  1  0.19047  0.30737  0.44380  1
 H  H8  1  0.73502  0.84039  0.54167  1
 H  H9  1  0.14538  0.86959  0.22026  1
 H  H10  1  0.73682  0.11491  0.49869  1
 H  H11  1  0.73682  0.61491  0.49869  1
 H  H12  1  0.66946  0.66753  0.28719  1
 H  H13  1  0.73502  0.34039  0.54167  1
 H  H14  1  0.19259  0.57843  0.39820  1
 H  H15  1  0.66896  0.39421  0.33435  1
 H  H16  1  0.66896  0.89421  0.33435  1
 H  H17  1  0.65931  0.74586  0.07362  1
 H  H18  1  0.65807  0.96940  0.12854  1
 H  H19  1  0.65807  0.46940  0.12854  1
 H  H20  1  0.66946  0.16753  0.28719  1
 O  O1  1  0.05945  0.76812  0.95243  1
 O  O2  1  0.65758  0.21410  0.73313  1
 O  O3  1  0.20493  0.05648  0.64601  1
 O  O4  1  0.20493  0.55648  0.64601  1
 O  O5  1  0.45367  0.47560  0.91629  1
 O  O6  1  0.45367  0.97560  0.91629  1
 O  O7  1  0.05945  0.26812  0.95243  1
 O  O8  1  0.65758  0.71410  0.73313  1
