CIF file written using JARVIS-Tools package.
data_SiPbN2
_symmetry_space_group_name_H-M  'Pna2_1'
_cell_length_a       5.63894
_cell_length_b       7.55368
_cell_length_c       5.15007
_cell_angle_alpha    90
_cell_angle_beta     90
_cell_angle_gamma    90

_symmetry_Int_Tables_number  33
_chemical_formula_structural  SiPbN2
_chemical_formula_sum  Si4Pb4N8
_cell_volume  219.3657141832767
_cell_formula_units_Z  4
loop_
  _symmetry_equiv_pos_site_id
 _symmetry_equiv_pos_as_xyz
 1  'x, y, z'
loop_
 _atom_site_type_symbol
 _atom_site_label
 _atom_site_symmetry_multiplicity
 _atom_site_fract_x
 _atom_site_fract_y
 _atom_site_fract_z
 _atom_site_fract_occupancy
 N  N1  1  0.50597  0.42107  0.33639  1
 N  N2  1  0.49403  0.57893  0.83639  1
 N  N3  1  0.99403  0.92107  0.83639  1
 N  N4  1  0.00597  0.07893  0.33639  1
 N  N5  1  0.73235  0.75657  0.41117  1
 N  N6  1  0.26765  0.24343  0.91117  1
 N  N7  1  0.76765  0.25657  0.91117  1
 N  N8  1  0.23235  0.74343  0.41117  1
 Pb  Pb1  1  0.56897  0.87380  0.01960  1
 Pb  Pb2  1  0.43103  0.12620  0.51960  1
 Pb  Pb3  1  0.93103  0.37380  0.51960  1
 Pb  Pb4  1  0.06897  0.62620  0.01960  1
 Si  Si1  1  0.51351  0.37385  0.00284  1
 Si  Si2  1  0.48649  0.62615  0.50284  1
 Si  Si3  1  0.98649  0.87385  0.50284  1
 Si  Si4  1  0.01351  0.12615  0.00284  1
