CIF file written using JARVIS-Tools package.
data_Ba3ScN3
_symmetry_space_group_name_H-M  'P6_3/m'
_cell_length_a       8.34406
_cell_length_b       8.34403
_cell_length_c       5.75407
_cell_angle_alpha    90
_cell_angle_beta     90
_cell_angle_gamma    120

_symmetry_Int_Tables_number  176
_chemical_formula_structural  Ba3ScN3
_chemical_formula_sum  Ba6Sc2N6
_cell_volume  346.9435759912939
_cell_formula_units_Z  2
loop_
  _symmetry_equiv_pos_site_id
 _symmetry_equiv_pos_as_xyz
 1  'x, y, z'
loop_
 _atom_site_type_symbol
 _atom_site_label
 _atom_site_symmetry_multiplicity
 _atom_site_fract_x
 _atom_site_fract_y
 _atom_site_fract_z
 _atom_site_fract_occupancy
 Ba  Ba1  1  0.92179  0.64718  0.25000  1
 Ba  Ba2  1  0.72539  0.07821  0.25000  1
 Ba  Ba3  1  0.35282  0.27461  0.25000  1
 Ba  Ba4  1  0.07821  0.35282  0.75000  1
 Ba  Ba5  1  0.27461  0.92179  0.75000  1
 Ba  Ba6  1  0.64718  0.72539  0.75000  1
 N  N1  1  0.88613  0.59971  0.75000  1
 N  N2  1  0.71358  0.11387  0.75000  1
 N  N3  1  0.40029  0.28643  0.75000  1
 N  N4  1  0.11387  0.40029  0.25000  1
 N  N5  1  0.28642  0.88613  0.25000  1
 N  N6  1  0.59971  0.71357  0.25000  1
 Sc  Sc1  1  0.66667  0.33333  0.75000  1
 Sc  Sc2  1  0.33333  0.66667  0.25000  1
