CIF file written using JARVIS-Tools package.
data_ZnH8C6O4
_symmetry_space_group_name_H-M  'P1'
_cell_length_a       4.06722
_cell_length_b       4.47089
_cell_length_c       10.2432
_cell_angle_alpha    76.6936
_cell_angle_beta     85.9708
_cell_angle_gamma    67.4766

_symmetry_Int_Tables_number  1
_chemical_formula_structural  ZnH8C6O4
_chemical_formula_sum  ZnH8C6O4
_cell_volume  167.40390095202682
_cell_formula_units_Z  1
loop_
  _symmetry_equiv_pos_site_id
 _symmetry_equiv_pos_as_xyz
 1  'x, y, z'
loop_
 _atom_site_type_symbol
 _atom_site_label
 _atom_site_symmetry_multiplicity
 _atom_site_fract_x
 _atom_site_fract_y
 _atom_site_fract_z
 _atom_site_fract_occupancy
 C  C1  1  0.39496  0.11815  0.03230  1
 C  C2  1  0.30532  0.07460  0.89922  1
 C  C3  1  0.27792  0.35781  0.77850  1
 C  C4  1  0.29909  0.41235  0.39342  1
 C  C5  1  0.25120  0.53317  0.52293  1
 C  C6  1  0.27287  0.25487  0.64636  1
 H  H1  1  0.46833  0.62001  0.52873  1
 H  H2  1  -0.00139  0.74548  0.51897  1
 H  H3  1  0.51626  0.03591  0.64153  1
 H  H4  1  0.50495  0.43333  0.78025  1
 H  H5  1  0.52803  0.84579  0.88576  1
 H  H6  1  0.06690  0.01472  0.90893  1
 H  H7  1  0.04746  0.17684  0.64342  1
 H  H8  1  0.03658  0.57736  0.78566  1
 O  O1  1  0.05999  0.53654  0.30166  1
 O  O2  1  0.30753  0.96681  0.14324  1
 O  O3  1  0.59595  0.17207  0.38611  1
 O  O4  1  0.60337  0.26949  0.03533  1
 Zn  Zn1  1  0.81236  0.03104  0.22385  1
