CIF file written using JARVIS-Tools package.
data_LiTmO2
_symmetry_space_group_name_H-M  'P2_1/c'
_cell_length_a       6.14244
_cell_length_b       6.00174
_cell_length_c       6.06231
_cell_angle_alpha    61.9622
_cell_angle_beta     90
_cell_angle_gamma    90

_symmetry_Int_Tables_number  14
_chemical_formula_structural  LiTmO2
_chemical_formula_sum  Li4Tm4O8
_cell_volume  197.2600871313895
_cell_formula_units_Z  4
loop_
  _symmetry_equiv_pos_site_id
 _symmetry_equiv_pos_as_xyz
 1  'x, y, z'
loop_
 _atom_site_type_symbol
 _atom_site_label
 _atom_site_symmetry_multiplicity
 _atom_site_fract_x
 _atom_site_fract_y
 _atom_site_fract_z
 _atom_site_fract_occupancy
 Li  Li1  1  0.14835  0.72064  0.54579  1
 Li  Li2  1  0.64835  0.27936  0.95421  1
 Li  Li3  1  0.35165  0.72064  0.04579  1
 Li  Li4  1  0.85165  0.27936  0.45421  1
 O  O1  1  0.16110  0.99554  0.82530  1
 O  O2  1  0.33890  0.99554  0.32530  1
 O  O3  1  0.88895  0.54085  0.76283  1
 O  O4  1  0.38895  0.45915  0.73717  1
 O  O5  1  0.61105  0.54085  0.26283  1
 O  O6  1  0.11105  0.45915  0.23717  1
 O  O7  1  0.66110  0.00446  0.67470  1
 O  O8  1  0.83890  0.00446  0.17470  1
 Tm  Tm1  1  0.87118  0.76123  0.98539  1
 Tm  Tm2  1  0.62882  0.76123  0.48539  1
 Tm  Tm3  1  0.37118  0.23877  0.51461  1
 Tm  Tm4  1  0.12882  0.23877  0.01461  1
