CIF file written using JARVIS-Tools package.
data_MnCo4N4
_symmetry_space_group_name_H-M  'P-1'
_cell_length_a       4.81739
_cell_length_b       4.78784
_cell_length_c       7.66874
_cell_angle_alpha    71.3164
_cell_angle_beta     84.582
_cell_angle_gamma    73.335

_symmetry_Int_Tables_number  2
_chemical_formula_structural  MnCo4N4
_chemical_formula_sum  Mn2Co8N8
_cell_volume  160.51888349849972
_cell_formula_units_Z  2
loop_
  _symmetry_equiv_pos_site_id
 _symmetry_equiv_pos_as_xyz
 1  'x, y, z'
loop_
 _atom_site_type_symbol
 _atom_site_label
 _atom_site_symmetry_multiplicity
 _atom_site_fract_x
 _atom_site_fract_y
 _atom_site_fract_z
 _atom_site_fract_occupancy
 Co  Co1  1  0.75789  0.64256  0.21652  1
 Co  Co2  1  0.25952  0.75566  0.04982  1
 Co  Co3  1  0.73179  0.06060  0.41549  1
 Co  Co4  1  0.21685  0.57184  0.42492  1
 Co  Co5  1  0.78315  0.42816  0.57508  1
 Co  Co6  1  0.26821  0.93940  0.58451  1
 Co  Co7  1  0.74048  0.24434  0.95018  1
 Co  Co8  1  0.24211  0.35744  0.78348  1
 Mn  Mn1  1  0.69761  0.84539  0.77731  1
 Mn  Mn2  1  0.30239  0.15461  0.22269  1
 N  N1  1  0.50922  0.78964  0.39273  1
 N  N2  1  0.97758  0.70825  0.61753  1
 N  N3  1  0.02242  0.29175  0.38247  1
 N  N4  1  0.86889  0.82393  0.98237  1
 N  N5  1  0.13111  0.17607  0.01763  1
 N  N6  1  0.42916  0.63194  0.83683  1
 N  N7  1  0.57084  0.36806  0.16317  1
 N  N8  1  0.49078  0.21036  0.60727  1
