CIF file written using JARVIS-Tools package.
data_Li2Cu4S3
_symmetry_space_group_name_H-M  'C2/m'
_cell_length_a       8.01092
_cell_length_b       8.01092
_cell_length_c       9.8689
_cell_angle_alpha    72.1012
_cell_angle_beta     72.1012
_cell_angle_gamma    27.3882

_symmetry_Int_Tables_number  12
_chemical_formula_structural  Li2Cu4S3
_chemical_formula_sum  Li4Cu8S6
_cell_volume  276.3840186765057
_cell_formula_units_Z  2
loop_
  _symmetry_equiv_pos_site_id
 _symmetry_equiv_pos_as_xyz
 1  'x, y, z'
loop_
 _atom_site_type_symbol
 _atom_site_label
 _atom_site_symmetry_multiplicity
 _atom_site_fract_x
 _atom_site_fract_y
 _atom_site_fract_z
 _atom_site_fract_occupancy
 Cu  Cu1  1  0.91164  0.91164  0.46881  1
 Cu  Cu2  1  0.90951  0.90951  0.12057  1
 Cu  Cu3  1  0.45830  0.45830  0.90663  1
 Cu  Cu4  1  0.45451  0.45451  0.63706  1
 Cu  Cu5  1  0.54170  0.54170  0.09337  1
 Cu  Cu6  1  0.54549  0.54549  0.36294  1
 Cu  Cu7  1  0.08836  0.08836  0.53119  1
 Cu  Cu8  1  0.09049  0.09049  0.87943  1
 Li  Li1  1  0.82538  0.82538  0.91555  1
 Li  Li2  1  0.17462  0.17462  0.08445  1
 Li  Li3  1  0.72369  0.72369  0.64151  1
 Li  Li4  1  0.27631  0.27631  0.35849  1
 S  S1  1  0.66974  0.66974  0.43211  1
 S  S2  1  0.01127  0.01127  0.24234  1
 S  S3  1  0.33026  0.33026  0.56789  1
 S  S4  1  0.32697  0.32697  0.09558  1
 S  S5  1  0.67303  0.67303  0.90442  1
 S  S6  1  -0.01127  -0.01127  0.75766  1
