CIF file written using JARVIS-Tools package.
data_Mg4VN4
_symmetry_space_group_name_H-M  'P-1'
_cell_length_a       5.36872
_cell_length_b       5.37321
_cell_length_c       8.24728
_cell_angle_alpha    70.1641
_cell_angle_beta     82.4219
_cell_angle_gamma    69.4298

_symmetry_Int_Tables_number  2
_chemical_formula_structural  Mg4VN4
_chemical_formula_sum  Mg8V2N8
_cell_volume  209.50499690170855
_cell_formula_units_Z  2
loop_
  _symmetry_equiv_pos_site_id
 _symmetry_equiv_pos_as_xyz
 1  'x, y, z'
loop_
 _atom_site_type_symbol
 _atom_site_label
 _atom_site_symmetry_multiplicity
 _atom_site_fract_x
 _atom_site_fract_y
 _atom_site_fract_z
 _atom_site_fract_occupancy
 Mg  Mg1  1  0.72791  0.62659  0.20395  1
 Mg  Mg2  1  0.27209  0.37341  0.79605  1
 Mg  Mg3  1  0.75442  0.24585  0.99811  1
 Mg  Mg4  1  0.24558  0.75415  0.00189  1
 Mg  Mg5  1  0.74393  0.46841  0.58052  1
 Mg  Mg6  1  0.25607  0.53159  0.41948  1
 Mg  Mg7  1  0.25293  0.94435  0.59317  1
 Mg  Mg8  1  0.74707  0.05565  0.40683  1
 N  N1  1  0.48689  0.38733  0.19614  1
 N  N2  1  0.51311  0.61267  0.80386  1
 N  N3  1  0.16549  0.14868  0.03673  1
 N  N4  1  0.83451  0.85132  0.96327  1
 N  N5  1  0.50912  0.18327  0.62019  1
 N  N6  1  0.99223  0.69708  0.61776  1
 N  N7  1  0.49088  0.81673  0.37981  1
 N  N8  1  0.00777  0.30292  0.38224  1
 V  V1  1  0.72848  0.84321  0.76621  1
 V  V2  1  0.27152  0.15679  0.23379  1
