CIF file written using JARVIS-Tools package.
data_H6C13S3O
_symmetry_space_group_name_H-M  'P1'
_cell_length_a       3.7863
_cell_length_b       5.99514
_cell_length_c       12.8715
_cell_angle_alpha    76.1211
_cell_angle_beta     67.8566
_cell_angle_gamma    73.2729

_symmetry_Int_Tables_number  1
_chemical_formula_structural  H6C13S3O
_chemical_formula_sum  H6C3S3O
_cell_volume  256.3158918638363
_cell_formula_units_Z  1
loop_
  _symmetry_equiv_pos_site_id
 _symmetry_equiv_pos_as_xyz
 1  'x, y, z'
loop_
 _atom_site_type_symbol
 _atom_site_label
 _atom_site_symmetry_multiplicity
 _atom_site_fract_x
 _atom_site_fract_y
 _atom_site_fract_z
 _atom_site_fract_occupancy
 C  C1  1  0.18019  0.46971  0.34155  1
 C  C2  1  0.15459  0.50564  0.94703  1
 C  C3  1  0.29900  0.27616  0.92328  1
 C  C4  1  0.33611  0.25838  0.29709  1
 C  C5  1  0.30643  0.25600  0.81560  1
 C  C6  1  0.33125  0.27877  0.18619  1
 C  C7  1  0.07852  0.62257  0.04239  1
 C  C8  1  0.13467  0.52329  0.64519  1
 C  C9  1  0.13932  0.52336  0.44886  1
 C  C10  1  0.17116  0.46949  0.75592  1
 C  C11  1  0.16699  0.50595  0.14557  1
 C  C12  1  0.99284  0.74392  0.59268  1
 C  C13  1  0.99552  0.74401  0.48364  1
 H  H1  1  0.45065  0.13207  0.13807  1
 H  H2  1  0.89828  0.90186  0.43016  1
 H  H3  1  0.45446  0.09466  0.34308  1
 H  H4  1  0.39496  0.12609  0.98047  1
 H  H5  1  0.89319  0.90161  0.63265  1
 H  H6  1  0.40100  0.08908  0.78336  1
 O  O1  1  0.92316  0.84008  0.03567  1
 S  S1  1  0.27098  0.31371  0.55572  1
 S  S2  1  0.03014  0.69685  0.83480  1
 S  S3  1  0.02574  0.69452  0.24463  1
