CIF file written using JARVIS-Tools package.
data_HC3SO
_symmetry_space_group_name_H-M  'P1'
_cell_length_a       3.69624
_cell_length_b       7.93283
_cell_length_c       10.4848
_cell_angle_alpha    72.7745
_cell_angle_beta     93.2326
_cell_angle_gamma    87.1576

_symmetry_Int_Tables_number  1
_chemical_formula_structural  HC3SO
_chemical_formula_sum  H4C2S4O4
_cell_volume  292.4674717853296
_cell_formula_units_Z  4
loop_
  _symmetry_equiv_pos_site_id
 _symmetry_equiv_pos_as_xyz
 1  'x, y, z'
loop_
 _atom_site_type_symbol
 _atom_site_label
 _atom_site_symmetry_multiplicity
 _atom_site_fract_x
 _atom_site_fract_y
 _atom_site_fract_z
 _atom_site_fract_occupancy
 C  C1  1  0.10569  0.88586  0.57013  1
 C  C2  1  0.93831  0.98459  0.44665  1
 C  C3  1  0.11705  0.47648  0.16642  1
 C  C4  1  0.11705  0.97648  0.66642  1
 C  C5  1  0.02044  0.77907  0.29697  1
 C  C6  1  0.02044  0.27907  0.79697  1
 C  C7  1  0.86136  0.94901  0.31980  1
 C  C8  1  0.86136  0.44901  0.81980  1
 C  C9  1  0.95246  0.64623  0.11590  1
 C  C10  1  0.95246  0.14623  0.61590  1
 C  C11  1  0.93831  0.48459  0.94665  1
 C  C12  1  0.10569  0.38586  0.07013  1
 H  H1  1  0.23793  0.41941  0.26704  1
 H  H2  1  0.21837  0.75114  0.59184  1
 H  H3  1  0.21837  0.25114  0.09184  1
 H  H4  1  0.23794  0.91941  0.76704  1
 O  O1  1  0.89314  0.77972  0.17140  1
 O  O2  1  0.66402  0.55598  0.72881  1
 O  O3  1  0.66402  0.05598  0.22881  1
 O  O4  1  0.89314  0.27972  0.67140  1
 S  S1  1  0.78276  0.69483  0.95058  1
 S  S2  1  0.78275  0.19483  0.45058  1
 S  S3  1  0.29634  0.12818  0.90222  1
 S  S4  1  0.29634  0.62818  0.40222  1
