CIF file written using JARVIS-Tools package.
data_H2C6SO3
_symmetry_space_group_name_H-M  'P1'
_cell_length_a       4.67122
_cell_length_b       6.91821
_cell_length_c       9.86039
_cell_angle_alpha    73.0024
_cell_angle_beta     76.233
_cell_angle_gamma    79.8709

_symmetry_Int_Tables_number  1
_chemical_formula_structural  H2C6SO3
_chemical_formula_sum  H4C2S2O6
_cell_volume  294.0340768612927
_cell_formula_units_Z  2
loop_
  _symmetry_equiv_pos_site_id
 _symmetry_equiv_pos_as_xyz
 1  'x, y, z'
loop_
 _atom_site_type_symbol
 _atom_site_label
 _atom_site_symmetry_multiplicity
 _atom_site_fract_x
 _atom_site_fract_y
 _atom_site_fract_z
 _atom_site_fract_occupancy
 C  C1  1  0.53707  0.15697  0.43516  1
 C  C2  1  0.35021  0.03357  0.54304  1
 C  C3  1  0.75722  0.54377  0.85446  1
 C  C4  1  0.75722  0.04377  0.35446  1
 C  C5  1  0.93547  0.66353  0.37099  1
 C  C6  1  0.93547  0.16353  0.87099  1
 C  C7  1  0.09018  0.07217  0.65325  1
 C  C8  1  0.09019  0.57217  0.15325  1
 C  C9  1  0.74121  0.33608  0.90665  1
 C  C10  1  0.74120  0.83608  0.40665  1
 C  C11  1  0.35021  0.53357  0.04304  1
 C  C12  1  0.53707  0.65697  0.93516  1
 H  H1  1  0.92536  0.61019  0.76402  1
 H  H2  1  0.51446  0.32122  0.41429  1
 H  H3  1  0.51446  0.82122  0.91429  1
 H  H4  1  0.92536  0.11019  0.26402  1
 O  O1  1  0.95160  0.49289  0.45143  1
 O  O2  1  0.87218  0.48200  0.18391  1
 O  O3  1  0.87218  0.98200  0.68391  1
 O  O4  1  0.11849  0.70535  0.22930  1
 O  O5  1  0.11849  0.20535  0.72930  1
 O  O6  1  0.95160  0.99289  0.95143  1
 S  S1  1  0.44709  0.27940  0.04983  1
 S  S2  1  0.44709  0.77940  0.54983  1
