CIF file written using JARVIS-Tools package.
data_KHgBr3O
_symmetry_space_group_name_H-M  'Cmcm'
_cell_length_a       8.18056
_cell_length_b       8.18056
_cell_length_c       10.107
_cell_angle_alpha    90
_cell_angle_beta     90
_cell_angle_gamma    149.124

_symmetry_Int_Tables_number  63
_chemical_formula_structural  KHgBr3O
_chemical_formula_sum  K2Hg2Br6O2
_cell_volume  347.10133533242526
_cell_formula_units_Z  2
loop_
  _symmetry_equiv_pos_site_id
 _symmetry_equiv_pos_as_xyz
 1  'x, y, z'
loop_
 _atom_site_type_symbol
 _atom_site_label
 _atom_site_symmetry_multiplicity
 _atom_site_fract_x
 _atom_site_fract_y
 _atom_site_fract_z
 _atom_site_fract_occupancy
 Br  Br1  1  0.84492  0.15508  0.63237  1
 Br  Br2  1  0.15508  0.84492  0.13237  1
 Br  Br3  1  0.84500  0.15500  0.02679  1
 Br  Br4  1  0.15500  0.84500  0.52679  1
 Br  Br5  1  0.53945  0.46055  0.82957  1
 Br  Br6  1  0.46055  0.53945  0.32957  1
 Hg  Hg1  1  -0.00001  0.00001  0.57983  1
 Hg  Hg2  1  0.00001  -0.00001  0.07983  1
 K  K1  1  0.75876  0.24124  0.32957  1
 K  K2  1  0.24124  0.75876  0.82957  1
 O  O1  1  0.34681  0.65319  0.32957  1
 O  O2  1  0.65319  0.34681  0.82957  1
