CIF file written using JARVIS-Tools package.
data_H8C14SO
_symmetry_space_group_name_H-M  'P1'
_cell_length_a       3.79905
_cell_length_b       6.21205
_cell_length_c       10.7627
_cell_angle_alpha    92.143
_cell_angle_beta     98.3508
_cell_angle_gamma    107.405

_symmetry_Int_Tables_number  1
_chemical_formula_structural  H8C14SO
_chemical_formula_sum  H8C4SO
_cell_volume  238.9188251572753
_cell_formula_units_Z  1
loop_
  _symmetry_equiv_pos_site_id
 _symmetry_equiv_pos_as_xyz
 1  'x, y, z'
loop_
 _atom_site_type_symbol
 _atom_site_label
 _atom_site_symmetry_multiplicity
 _atom_site_fract_x
 _atom_site_fract_y
 _atom_site_fract_z
 _atom_site_fract_occupancy
 C  C1  1  0.85736  0.27803  0.22064  1
 C  C2  1  0.21887  0.52094  0.55645  1
 C  C3  1  0.92029  0.43721  0.01591  1
 C  C4  1  0.35022  0.63077  0.21999  1
 C  C5  1  0.30175  0.74150  0.61482  1
 C  C6  1  0.25728  0.77600  0.73862  1
 C  C7  1  0.05584  0.45049  0.15324  1
 C  C8  1  0.41914  0.64779  0.35086  1
 C  C9  1  0.08250  0.37110  0.75622  1
 C  C10  1  0.92947  0.29473  0.35118  1
 C  C11  1  0.12152  0.33809  0.63139  1
 C  C12  1  0.19983  0.48543  0.41935  1
 C  C13  1  0.04893  0.63120  0.93626  1
 C  C14  1  0.13207  0.59075  0.81064  1
 H  H1  1  0.62921  0.13875  0.16890  1
 H  H2  1  0.00187  0.22588  0.81082  1
 H  H3  1  0.75153  0.16837  0.40143  1
 H  H4  1  0.38544  0.88705  0.55995  1
 H  H5  1  0.52437  0.75769  0.16916  1
 H  H6  1  0.31300  0.94689  0.78169  1
 H  H7  1  0.64820  0.78854  0.40116  1
 H  H8  1  0.07306  0.16623  0.59083  1
 O  O1  1  0.65492  0.27423  0.96336  1
 S  S1  1  0.98540  0.86820  0.98715  1
