CIF file written using JARVIS-Tools package.
data_Ca5Co2N6
_symmetry_space_group_name_H-M  'C2/c'
_cell_length_a       5.7856
_cell_length_b       6.18132
_cell_length_c       12.4419
_cell_angle_alpha    90
_cell_angle_beta     100.57
_cell_angle_gamma    122.29

_symmetry_Int_Tables_number  15
_chemical_formula_structural  Ca5Co2N6
_chemical_formula_sum  Ca0Co4N2
_cell_volume  367.18349600523766
_cell_formula_units_Z  2
loop_
  _symmetry_equiv_pos_site_id
 _symmetry_equiv_pos_as_xyz
 1  'x, y, z'
loop_
 _atom_site_type_symbol
 _atom_site_label
 _atom_site_symmetry_multiplicity
 _atom_site_fract_x
 _atom_site_fract_y
 _atom_site_fract_z
 _atom_site_fract_occupancy
 Ca  Ca1  1  -0.00000  0.36870  0.75000  1
 Ca  Ca2  1  0.00000  0.63130  0.25000  1
 Ca  Ca3  1  0.12808  0.80382  0.99936  1
 Ca  Ca4  1  0.87192  0.67575  0.50064  1
 Ca  Ca5  1  0.87192  0.19618  0.00064  1
 Ca  Ca6  1  0.12808  0.32425  0.49936  1
 Ca  Ca7  1  0.31924  0.05132  0.72386  1
 Ca  Ca8  1  0.68076  0.73208  0.77614  1
 Ca  Ca9  1  0.68076  0.94868  0.27614  1
 Ca  Ca10  1  0.31924  0.26792  0.22386  1
 Co  Co1  1  0.45715  0.34031  0.93534  1
 Co  Co2  1  0.54285  0.88316  0.56466  1
 Co  Co3  1  0.54285  0.65969  0.06466  1
 Co  Co4  1  0.45715  0.11684  0.43534  1
 N  N1  1  0.10511  0.09066  0.87126  1
 N  N2  1  0.10511  0.01445  0.37126  1
 N  N3  1  0.28664  0.67602  0.64439  1
 N  N4  1  0.71336  0.38938  0.85561  1
 N  N5  1  0.71336  0.32398  0.35561  1
 N  N6  1  0.28664  0.61062  0.14439  1
 N  N7  1  0.56914  0.23347  0.57520  1
 N  N8  1  0.43086  0.66433  0.92480  1
 N  N9  1  0.43086  0.76653  0.42480  1
 N  N10  1  0.56914  0.33567  0.07520  1
 N  N11  1  0.89489  0.98555  0.62874  1
 N  N12  1  0.89489  0.90934  0.12874  1
