CIF file written using JARVIS-Tools package.
data_Nd2Al2Fe15
_symmetry_space_group_name_H-M  'R-3m'
_cell_length_a       6.38842
_cell_length_b       6.38841
_cell_length_c       6.38842
_cell_angle_alpha    82.0959
_cell_angle_beta     82.0959
_cell_angle_gamma    82.0958

_symmetry_Int_Tables_number  166
_chemical_formula_structural  Nd2Al2Fe15
_chemical_formula_sum  Nd2Al2Fe5
_cell_volume  253.9164151160192
_cell_formula_units_Z  1
loop_
  _symmetry_equiv_pos_site_id
 _symmetry_equiv_pos_as_xyz
 1  'x, y, z'
loop_
 _atom_site_type_symbol
 _atom_site_label
 _atom_site_symmetry_multiplicity
 _atom_site_fract_x
 _atom_site_fract_y
 _atom_site_fract_z
 _atom_site_fract_occupancy
 Al  Al1  1  0.89822  0.89822  0.89822  1
 Al  Al2  1  0.10178  0.10178  0.10178  1
 Fe  Fe1  1  0.71331  0.00000  0.28669  1
 Fe  Fe2  1  0.00000  0.00000  0.50000  1
 Fe  Fe3  1  0.50000  -0.00000  0.00000  1
 Fe  Fe4  1  0.00000  0.50000  0.00000  1
 Fe  Fe5  1  0.71331  0.28669  0.00000  1
 Fe  Fe6  1  0.00000  0.71331  0.28669  1
 Fe  Fe7  1  0.15831  0.66123  0.66123  1
 Fe  Fe8  1  0.28669  -0.00000  0.71331  1
 Fe  Fe9  1  0.66123  0.15831  0.66123  1
 Fe  Fe10  1  0.28669  0.71331  0.00000  1
 Fe  Fe11  1  0.33877  0.33877  0.84169  1
 Fe  Fe12  1  0.84169  0.33877  0.33877  1
 Fe  Fe13  1  0.33877  0.84169  0.33877  1
 Fe  Fe14  1  0.66123  0.66123  0.15831  1
 Fe  Fe15  1  -0.00000  0.28669  0.71331  1
 Nd  Nd1  1  0.34725  0.34725  0.34725  1
 Nd  Nd2  1  0.65275  0.65275  0.65275  1
