CIF file written using JARVIS-Tools package.
data_AgSbS
_symmetry_space_group_name_H-M  'P4mm'
_cell_length_a       2.95273
_cell_length_b       2.95273
_cell_length_c       8.19369
_cell_angle_alpha    90
_cell_angle_beta     90
_cell_angle_gamma    90

_symmetry_Int_Tables_number  99
_chemical_formula_structural  AgSbS
_chemical_formula_sum  AgSbS
_cell_volume  71.43768629662844
_cell_formula_units_Z  1
loop_
  _symmetry_equiv_pos_site_id
 _symmetry_equiv_pos_as_xyz
 1  'x, y, z'
loop_
 _atom_site_type_symbol
 _atom_site_label
 _atom_site_symmetry_multiplicity
 _atom_site_fract_x
 _atom_site_fract_y
 _atom_site_fract_z
 _atom_site_fract_occupancy
 Ag  Ag1  1  0.00000  0.00000  0.32182  1
 S  S1  1  0.00000  0.00000  0.02220  1
 Sb  Sb1  1  0.00000  0.00000  0.65599  1
