CIF file written using JARVIS-Tools package.
data_Mg2NbN3
_symmetry_space_group_name_H-M  'C2/c'
_cell_length_a       5.68583
_cell_length_b       5.68583
_cell_length_c       5.74015
_cell_angle_alpha    66.7738
_cell_angle_beta     66.7738
_cell_angle_gamma    65.7576

_symmetry_Int_Tables_number  15
_chemical_formula_structural  Mg2NbN3
_chemical_formula_sum  Mg4Nb2N6
_cell_volume  149.39140520208002
_cell_formula_units_Z  2
loop_
  _symmetry_equiv_pos_site_id
 _symmetry_equiv_pos_as_xyz
 1  'x, y, z'
loop_
 _atom_site_type_symbol
 _atom_site_label
 _atom_site_symmetry_multiplicity
 _atom_site_fract_x
 _atom_site_fract_y
 _atom_site_fract_z
 _atom_site_fract_occupancy
 Mg  Mg1  1  0.75438  0.91586  0.07722  1
 Mg  Mg2  1  0.08414  0.24562  0.42278  1
 Mg  Mg3  1  0.24562  0.08414  0.92278  1
 Mg  Mg4  1  0.91586  0.75438  0.57722  1
 N  N1  1  0.09641  0.90359  0.75000  1
 N  N2  1  0.90359  0.09641  0.25000  1
 N  N3  1  0.72915  0.58746  0.42445  1
 N  N4  1  0.41254  0.27085  0.07555  1
 N  N5  1  0.27085  0.41254  0.57555  1
 N  N6  1  0.58746  0.72915  0.92445  1
 Nb  Nb1  1  0.41070  0.58930  0.75000  1
 Nb  Nb2  1  0.58930  0.41070  0.25000  1
