CIF file written using JARVIS-Tools package.
data_H8C10SN2
_symmetry_space_group_name_H-M  'P1'
_cell_length_a       5.5612
_cell_length_b       6.97653
_cell_length_c       11.0058
_cell_angle_alpha    98.5085
_cell_angle_beta     99.3113
_cell_angle_gamma    100.364

_symmetry_Int_Tables_number  1
_chemical_formula_structural  H8C10SN2
_chemical_formula_sum  H6C20S2N4
_cell_volume  407.54784038593186
_cell_formula_units_Z  2
loop_
  _symmetry_equiv_pos_site_id
 _symmetry_equiv_pos_as_xyz
 1  'x, y, z'
loop_
 _atom_site_type_symbol
 _atom_site_label
 _atom_site_symmetry_multiplicity
 _atom_site_fract_x
 _atom_site_fract_y
 _atom_site_fract_z
 _atom_site_fract_occupancy
 C  C1  1  0.39355  0.62817  0.34613  1
 C  C2  1  0.31181  0.82118  0.86317  1
 C  C3  1  0.81180  0.82118  0.36317  1
 C  C4  1  0.05775  0.76995  0.80672  1
 C  C5  1  0.89356  0.62817  0.84613  1
 C  C6  1  0.22655  0.59212  0.00503  1
 C  C7  1  0.55774  0.76995  0.30672  1
 C  C8  1  0.72655  0.59212  0.50503  1
 C  C9  1  0.41445  0.08775  0.74619  1
 C  C10  1  0.89193  0.73408  0.46529  1
 C  C11  1  0.83691  0.30008  0.08332  1
 C  C12  1  0.33691  0.30008  0.58332  1
 C  C13  1  0.91445  0.08775  0.24619  1
 C  C14  1  0.70364  0.32410  0.17689  1
 C  C15  1  0.20364  0.32410  0.67690  1
 C  C16  1  0.74611  0.20485  0.26868  1
 C  C17  1  0.24612  0.20485  0.76868  1
 C  C18  1  0.39193  0.73408  0.96529  1
 C  C19  1  0.47649  0.53368  0.44440  1
 C  C20  1  0.97649  0.53368  0.94440  1
 H  H1  1  0.48921  0.83710  0.22845  1
 H  H2  1  0.62961  0.36189  0.92826  1
 H  H3  1  0.69868  0.58634  0.79820  1
 H  H4  1  0.19868  0.58634  0.29820  1
 H  H5  1  0.58676  0.77556  0.01290  1
 H  H6  1  0.29254  0.52391  0.08311  1
 H  H7  1  0.66781  0.96004  0.85090  1
 H  H8  1  0.16780  0.96004  0.35090  1
 H  H9  1  0.79254  0.52391  0.58311  1
 H  H10  1  0.12961  0.36188  0.42826  1
 H  H11  1  0.65482  0.20376  0.34889  1
 H  H12  1  0.15482  0.20376  0.84889  1
 H  H13  1  0.58041  0.42792  0.18069  1
 H  H14  1  0.08041  0.42792  0.68069  1
 H  H15  1  0.98922  0.83710  0.72845  1
 H  H16  1  0.08675  0.77556  0.51290  1
 N  N1  1  0.80925  0.38004  0.97385  1
 N  N2  1  0.98424  0.94782  0.31491  1
 N  N3  1  0.30925  0.38004  0.47385  1
 N  N4  1  0.48425  0.94782  0.81491  1
 S  S1  1  0.51885  0.11987  0.60677  1
 S  S2  1  0.01884  0.11987  0.10677  1
