CIF file written using JARVIS-Tools package.
data_Mn5CuN4
_symmetry_space_group_name_H-M  'Pmmn'
_cell_length_a       7.77668
_cell_length_b       5.46538
_cell_length_c       4.85808
_cell_angle_alpha    90
_cell_angle_beta     90
_cell_angle_gamma    90

_symmetry_Int_Tables_number  59
_chemical_formula_structural  Mn5CuN4
_chemical_formula_sum  Mn0Cu2N8
_cell_volume  206.48081632818673
_cell_formula_units_Z  2
loop_
  _symmetry_equiv_pos_site_id
 _symmetry_equiv_pos_as_xyz
 1  'x, y, z'
loop_
 _atom_site_type_symbol
 _atom_site_label
 _atom_site_symmetry_multiplicity
 _atom_site_fract_x
 _atom_site_fract_y
 _atom_site_fract_z
 _atom_site_fract_occupancy
 Cu  Cu1  1  0.25000  0.75000  0.13900  1
 Cu  Cu2  1  0.75000  0.25000  0.86100  1
 Mn  Mn1  1  0.53863  0.50998  0.25729  1
 Mn  Mn2  1  0.96137  0.50998  0.25729  1
 Mn  Mn3  1  0.53863  -0.00998  0.25729  1
 Mn  Mn4  1  0.96137  -0.00998  0.25729  1
 Mn  Mn5  1  0.46137  0.49002  0.74271  1
 Mn  Mn6  1  0.03863  0.49002  0.74271  1
 Mn  Mn7  1  0.46137  0.00998  0.74271  1
 Mn  Mn8  1  0.03863  0.00998  0.74271  1
 Mn  Mn9  1  0.75000  0.75000  0.83735  1
 Mn  Mn10  1  0.25000  0.25000  0.16265  1
 N  N1  1  0.93151  0.75000  0.55736  1
 N  N2  1  0.43151  0.25000  0.44264  1
 N  N3  1  0.75000  -0.02003  0.11861  1
 N  N4  1  0.75000  0.52003  0.11861  1
 N  N5  1  0.25000  0.02003  0.88139  1
 N  N6  1  0.25000  0.47997  0.88139  1
 N  N7  1  0.56849  0.75000  0.55736  1
 N  N8  1  0.06849  0.25000  0.44264  1
