CIF file written using JARVIS-Tools package.
data_LiNdGe2
_symmetry_space_group_name_H-M  'Pnma'
_cell_length_a       3.95991
_cell_length_b       7.84367
_cell_length_c       10.6876
_cell_angle_alpha    90
_cell_angle_beta     90
_cell_angle_gamma    90

_symmetry_Int_Tables_number  62
_chemical_formula_structural  LiNdGe2
_chemical_formula_sum  Li4Nd4Ge8
_cell_volume  331.9606387868187
_cell_formula_units_Z  4
loop_
  _symmetry_equiv_pos_site_id
 _symmetry_equiv_pos_as_xyz
 1  'x, y, z'
loop_
 _atom_site_type_symbol
 _atom_site_label
 _atom_site_symmetry_multiplicity
 _atom_site_fract_x
 _atom_site_fract_y
 _atom_site_fract_z
 _atom_site_fract_occupancy
 Ge  Ge1  1  0.25000  0.22262  0.93435  1
 Ge  Ge2  1  0.25000  0.72262  0.56565  1
 Ge  Ge3  1  0.75000  0.77738  0.06565  1
 Ge  Ge4  1  0.75000  0.27738  0.43435  1
 Ge  Ge5  1  0.25000  0.15554  0.31433  1
 Ge  Ge6  1  0.25000  0.65554  0.18567  1
 Ge  Ge7  1  0.75000  0.84446  0.68567  1
 Ge  Ge8  1  0.75000  0.34446  0.81433  1
 Li  Li1  1  0.25000  0.48898  0.39114  1
 Li  Li2  1  0.25000  0.98898  0.10886  1
 Li  Li3  1  0.75000  0.51102  0.60886  1
 Li  Li4  1  0.75000  0.01102  0.89114  1
 Nd  Nd1  1  0.25000  0.13773  0.63483  1
 Nd  Nd2  1  0.25000  0.63773  0.86517  1
 Nd  Nd3  1  0.75000  0.86227  0.36517  1
 Nd  Nd4  1  0.75000  0.36227  0.13483  1
