CIF file written using JARVIS-Tools package.
data_H3C6S3N
_symmetry_space_group_name_H-M  'P2_1'
_cell_length_a       3.81959
_cell_length_b       6.95142
_cell_length_c       12.8562
_cell_angle_alpha    100.629
_cell_angle_beta     90.0089
_cell_angle_gamma    90.0102

_symmetry_Int_Tables_number  4
_chemical_formula_structural  H3C6S3N
_chemical_formula_sum  H6C2S6N2
_cell_volume  335.49509686395254
_cell_formula_units_Z  2
loop_
  _symmetry_equiv_pos_site_id
 _symmetry_equiv_pos_as_xyz
 1  'x, y, z'
loop_
 _atom_site_type_symbol
 _atom_site_label
 _atom_site_symmetry_multiplicity
 _atom_site_fract_x
 _atom_site_fract_y
 _atom_site_fract_z
 _atom_site_fract_occupancy
 C  C1  1  0.58817  0.56157  0.66097  1
 C  C2  1  0.58952  0.74273  0.62778  1
 C  C3  1  0.74331  0.41406  0.58756  1
 C  C4  1  0.75692  0.73672  0.53058  1
 C  C5  1  0.79493  0.20839  0.59570  1
 C  C6  1  0.81368  0.88210  0.46658  1
 C  C7  1  0.08722  0.55284  0.94608  1
 C  C8  1  0.08861  0.37168  0.97927  1
 C  C9  1  0.29411  0.90606  0.01132  1
 C  C10  1  0.31317  0.23235  0.14044  1
 C  C11  1  0.24251  0.70038  0.01947  1
 C  C12  1  0.25623  0.37773  0.07645  1
 H  H1  1  0.46834  0.53497  0.73374  1
 H  H2  1  0.96731  0.57942  0.87330  1
 H  H3  1  0.16172  0.96873  0.16768  1
 H  H4  1  0.96227  0.24141  0.93599  1
 H  H5  1  0.46328  0.87298  0.67107  1
 H  H6  1  0.66227  0.14571  0.43935  1
 N  N1  1  0.72450  0.08026  0.50233  1
 N  N2  1  0.22385  0.03418  0.10469  1
 S  S1  1  0.95349  0.15894  0.70759  1
 S  S2  1  0.96721  0.82060  0.34378  1
 S  S3  1  0.46715  0.29382  0.26321  1
 S  S4  1  0.45244  0.95552  0.89942  1
 S  S5  1  0.89827  0.50093  0.47827  1
 S  S6  1  0.39770  0.61355  0.12875  1
