CIF file written using JARVIS-Tools package.
data_CuSi2N3
_symmetry_space_group_name_H-M  'Cmc2_1'
_cell_length_a       5.34146
_cell_length_b       5.32904
_cell_length_c       4.90324
_cell_angle_alpha    90
_cell_angle_beta     90
_cell_angle_gamma    119.923

_symmetry_Int_Tables_number  36
_chemical_formula_structural  CuSi2N3
_chemical_formula_sum  Cu2Si4N6
_cell_volume  120.96455224336272
_cell_formula_units_Z  2
loop_
  _symmetry_equiv_pos_site_id
 _symmetry_equiv_pos_as_xyz
 1  'x, y, z'
loop_
 _atom_site_type_symbol
 _atom_site_label
 _atom_site_symmetry_multiplicity
 _atom_site_fract_x
 _atom_site_fract_y
 _atom_site_fract_z
 _atom_site_fract_occupancy
 Cu  Cu1  1  -0.00000  0.63236  0.50881  1
 Cu  Cu2  1  0.00000  0.36764  0.00881  1
 N  N1  1  0.39792  0.33967  0.84624  1
 N  N2  1  0.60208  0.94175  0.84624  1
 N  N3  1  0.60208  0.66033  0.34624  1
 N  N4  1  0.39792  0.05825  0.34624  1
 N  N5  1  0.00000  0.73766  0.90624  1
 N  N6  1  -0.00000  0.26234  0.40624  1
 Si  Si1  1  0.33601  0.32724  0.49024  1
 Si  Si2  1  0.66399  0.99123  0.49024  1
 Si  Si3  1  0.66399  0.67276  0.99024  1
 Si  Si4  1  0.33601  0.00877  0.99024  1
