CIF file written using JARVIS-Tools package.
data_CaV4Co3O12
_symmetry_space_group_name_H-M  'Immm'
_cell_length_a       6.32125
_cell_length_b       6.32141
_cell_length_c       6.32133
_cell_angle_alpha    70.3929
_cell_angle_beta     70.5463
_cell_angle_gamma    109.353

_symmetry_Int_Tables_number  71
_chemical_formula_structural  CaV4Co3O12
_chemical_formula_sum  CaV4Co3O2
_cell_volume  194.4466022085157
_cell_formula_units_Z  1
loop_
  _symmetry_equiv_pos_site_id
 _symmetry_equiv_pos_as_xyz
 1  'x, y, z'
loop_
 _atom_site_type_symbol
 _atom_site_label
 _atom_site_symmetry_multiplicity
 _atom_site_fract_x
 _atom_site_fract_y
 _atom_site_fract_z
 _atom_site_fract_occupancy
 Ca  Ca1  1  0.00000  -0.00000  -0.00000  1
 Co  Co1  1  0.50000  -0.00000  0.50000  1
 Co  Co2  1  0.50000  0.50000  0.00000  1
 Co  Co3  1  0.00000  0.50000  0.50000  1
 O  O1  1  0.30677  0.12757  0.17920  1
 O  O2  1  0.51638  0.82204  0.30565  1
 O  O3  1  0.30677  0.48598  0.82079  1
 O  O4  1  0.69322  0.51402  0.17921  1
 O  O5  1  0.69323  0.87243  0.82080  1
 O  O6  1  0.17809  0.30912  0.51278  1
 O  O7  1  0.17807  0.69088  0.13105  1
 O  O8  1  0.87231  0.17796  0.30564  1
 O  O9  1  0.82190  0.69088  0.48722  1
 O  O10  1  0.12769  0.82204  0.69436  1
 O  O11  1  0.82193  0.30912  0.86896  1
 O  O12  1  0.48362  0.17796  0.69435  1
 V  V1  1  0.00000  0.00000  0.50000  1
 V  V2  1  0.50000  -0.00000  0.00000  1
 V  V3  1  0.50000  0.50000  0.50000  1
 V  V4  1  0.00000  0.50000  -0.00000  1
