CIF file written using JARVIS-Tools package.
data_MgZn5N4
_symmetry_space_group_name_H-M  'Pmmn'
_cell_length_a       7.36456
_cell_length_b       6.62425
_cell_length_c       4.95283
_cell_angle_alpha    90
_cell_angle_beta     90
_cell_angle_gamma    90

_symmetry_Int_Tables_number  59
_chemical_formula_structural  MgZn5N4
_chemical_formula_sum  Mg2Zn0N8
_cell_volume  241.62209918535095
_cell_formula_units_Z  2
loop_
  _symmetry_equiv_pos_site_id
 _symmetry_equiv_pos_as_xyz
 1  'x, y, z'
loop_
 _atom_site_type_symbol
 _atom_site_label
 _atom_site_symmetry_multiplicity
 _atom_site_fract_x
 _atom_site_fract_y
 _atom_site_fract_z
 _atom_site_fract_occupancy
 Mg  Mg1  1  0.75000  0.25000  0.72371  1
 Mg  Mg2  1  0.25000  0.75000  0.27629  1
 N  N1  1  0.49884  0.75000  0.49856  1
 N  N2  1  0.25000  0.50166  0.03852  1
 N  N3  1  0.25000  0.99834  0.03852  1
 N  N4  1  0.75000  0.49834  0.96148  1
 N  N5  1  0.75000  0.00166  0.96148  1
 N  N6  1  0.50116  0.25000  0.50144  1
 N  N7  1  0.00116  0.75000  0.49856  1
 N  N8  1  0.99884  0.25000  0.50144  1
 Zn  Zn1  1  0.56756  0.50042  0.25160  1
 Zn  Zn2  1  0.43244  0.49958  0.74840  1
 Zn  Zn3  1  0.93244  -0.00042  0.25160  1
 Zn  Zn4  1  0.06756  0.00042  0.74840  1
 Zn  Zn5  1  0.06756  0.49958  0.74840  1
 Zn  Zn6  1  0.43244  0.00042  0.74840  1
 Zn  Zn7  1  0.75000  0.75000  0.73581  1
 Zn  Zn8  1  0.25000  0.25000  0.26419  1
 Zn  Zn9  1  0.56756  -0.00042  0.25160  1
 Zn  Zn10  1  0.93244  0.50042  0.25160  1
