CIF file written using JARVIS-Tools package.
data_H3C5SNO2
_symmetry_space_group_name_H-M  'P1'
_cell_length_a       5.01218
_cell_length_b       6.44401
_cell_length_c       8.40094
_cell_angle_alpha    98.6026
_cell_angle_beta     97.9517
_cell_angle_gamma    98.6537

_symmetry_Int_Tables_number  1
_chemical_formula_structural  H3C5SNO2
_chemical_formula_sum  H6C0S2N2O4
_cell_volume  261.6160279220968
_cell_formula_units_Z  2
loop_
  _symmetry_equiv_pos_site_id
 _symmetry_equiv_pos_as_xyz
 1  'x, y, z'
loop_
 _atom_site_type_symbol
 _atom_site_label
 _atom_site_symmetry_multiplicity
 _atom_site_fract_x
 _atom_site_fract_y
 _atom_site_fract_z
 _atom_site_fract_occupancy
 C  C1  1  0.17266  0.46049  0.57073  1
 C  C2  1  0.93961  0.39674  0.95394  1
 C  C3  1  0.20084  0.67429  0.15129  1
 C  C4  1  0.20088  0.67428  0.65128  1
 C  C5  1  0.17266  0.46051  0.07074  1
 C  C6  1  0.93959  0.39675  0.45394  1
 C  C7  1  0.83699  0.20815  0.32884  1
 C  C8  1  0.83704  0.20814  0.82884  1
 C  C9  1  0.98729  0.76789  0.59199  1
 C  C10  1  0.98724  0.76788  0.09199  1
 H  H1  1  0.37014  0.75834  0.24444  1
 H  H2  1  0.22998  0.14934  0.80227  1
 H  H3  1  0.32044  0.35754  0.59733  1
 H  H4  1  0.32046  0.35757  0.09736  1
 H  H5  1  0.37020  0.75832  0.74442  1
 H  H6  1  0.22992  0.14933  0.30225  1
 N  N1  1  0.02559  0.08155  0.78672  1
 N  N2  1  0.02552  0.08154  0.28671  1
 O  O1  1  0.94177  0.97234  0.62125  1
 O  O2  1  0.59386  0.16680  0.75895  1
 O  O3  1  0.94167  0.97232  0.12125  1
 O  O4  1  0.59380  0.16682  0.25896  1
 S  S1  1  0.74659  0.59834  0.94477  1
 S  S2  1  0.74660  0.59837  0.44478  1
