CIF file written using JARVIS-Tools package.
data_Ba3NaSbO6
_symmetry_space_group_name_H-M  'R-3c'
_cell_length_a       7.20446
_cell_length_b       7.20446
_cell_length_c       7.20446
_cell_angle_alpha    91.9235
_cell_angle_beta     91.9235
_cell_angle_gamma    91.9235

_symmetry_Int_Tables_number  167
_chemical_formula_structural  Ba3NaSbO6
_chemical_formula_sum  Ba6Na2Sb2O2
_cell_volume  373.29573264122666
_cell_formula_units_Z  2
loop_
  _symmetry_equiv_pos_site_id
 _symmetry_equiv_pos_as_xyz
 1  'x, y, z'
loop_
 _atom_site_type_symbol
 _atom_site_label
 _atom_site_symmetry_multiplicity
 _atom_site_fract_x
 _atom_site_fract_y
 _atom_site_fract_z
 _atom_site_fract_occupancy
 Ba  Ba1  1  0.25000  0.60083  0.89917  1
 Ba  Ba2  1  0.89917  0.25000  0.60083  1
 Ba  Ba3  1  0.60083  0.89917  0.25000  1
 Ba  Ba4  1  0.39917  0.10083  0.75000  1
 Ba  Ba5  1  0.75000  0.39917  0.10083  1
 Ba  Ba6  1  0.10083  0.75000  0.39917  1
 Na  Na1  1  0.25000  0.25000  0.25000  1
 Na  Na2  1  0.75000  0.75000  0.75000  1
 O  O1  1  0.55117  0.23175  0.41799  1
 O  O2  1  0.26825  0.94883  0.08201  1
 O  O3  1  0.08201  0.26825  0.94883  1
 O  O4  1  0.76825  0.58201  0.44883  1
 O  O5  1  0.94883  0.08201  0.26825  1
 O  O6  1  0.58201  0.44883  0.76825  1
 O  O7  1  0.23175  0.41799  0.55117  1
 O  O8  1  0.73175  0.05117  0.91799  1
 O  O9  1  0.91799  0.73175  0.05117  1
 O  O10  1  0.44883  0.76825  0.58201  1
 O  O11  1  0.05117  0.91799  0.73175  1
 O  O12  1  0.41799  0.55117  0.23175  1
 Sb  Sb1  1  0.50000  0.50000  0.50000  1
 Sb  Sb2  1  0.00000  0.00000  0.00000  1
