CIF file written using JARVIS-Tools package.
data_NaClO3
_symmetry_space_group_name_H-M  'Cm'
_cell_length_a       4.43613
_cell_length_b       3.8642
_cell_length_c       4.43613
_cell_angle_alpha    95.8783
_cell_angle_beta     98.9276
_cell_angle_gamma    95.8782

_symmetry_Int_Tables_number  8
_chemical_formula_structural  NaClO3
_chemical_formula_sum  NaClO3
_cell_volume  74.18462336500215
_cell_formula_units_Z  1
loop_
  _symmetry_equiv_pos_site_id
 _symmetry_equiv_pos_as_xyz
 1  'x, y, z'
loop_
 _atom_site_type_symbol
 _atom_site_label
 _atom_site_symmetry_multiplicity
 _atom_site_fract_x
 _atom_site_fract_y
 _atom_site_fract_z
 _atom_site_fract_occupancy
 Cl  Cl1  1  0.69811  -0.23270  0.69811  1
 Na  Na1  1  0.19802  0.41636  0.19802  1
 O  O1  1  0.80925  0.52944  0.45998  1
 O  O2  1  -0.04035  0.88247  -0.04035  1
 O  O3  1  0.45998  0.52944  0.80925  1
