CIF file written using JARVIS-Tools package.
data_Li3CN2
_symmetry_space_group_name_H-M  'P2_1/c'
_cell_length_a       5.00422
_cell_length_b       6.75016
_cell_length_c       6.77653
_cell_angle_alpha    90
_cell_angle_beta     112.307
_cell_angle_gamma    90

_symmetry_Int_Tables_number  14
_chemical_formula_structural  Li3CN2
_chemical_formula_sum  Li2C4N8
_cell_volume  211.7763811025553
_cell_formula_units_Z  4
loop_
  _symmetry_equiv_pos_site_id
 _symmetry_equiv_pos_as_xyz
 1  'x, y, z'
loop_
 _atom_site_type_symbol
 _atom_site_label
 _atom_site_symmetry_multiplicity
 _atom_site_fract_x
 _atom_site_fract_y
 _atom_site_fract_z
 _atom_site_fract_occupancy
 C  C1  1  0.84291  0.63605  0.87042  1
 C  C2  1  0.15709  0.13605  0.62958  1
 C  C3  1  0.15709  0.36395  0.12958  1
 C  C4  1  0.84291  0.86395  0.37042  1
 Li  Li1  1  0.25310  0.02751  0.99562  1
 Li  Li2  1  0.74690  0.52751  0.50438  1
 Li  Li3  1  0.74690  0.97249  0.00438  1
 Li  Li4  1  0.25310  0.47249  0.49562  1
 Li  Li5  1  0.74544  0.98272  0.62914  1
 Li  Li6  1  0.74899  0.19990  0.32096  1
 Li  Li7  1  0.74544  0.51728  0.12914  1
 Li  Li8  1  0.25456  0.01728  0.37086  1
 Li  Li9  1  0.74899  0.30010  0.82096  1
 Li  Li10  1  0.25101  0.80010  0.67904  1
 Li  Li11  1  0.25101  0.69990  0.17904  1
 Li  Li12  1  0.25456  0.48272  0.87086  1
 N  N1  1  0.00139  0.79031  0.87137  1
 N  N2  1  0.00139  0.70969  0.37137  1
 N  N3  1  0.42564  0.07423  0.72062  1
 N  N4  1  0.57436  0.57423  0.77938  1
 N  N5  1  0.57436  0.92577  0.27938  1
 N  N6  1  0.42564  0.42577  0.22062  1
 N  N7  1  -0.00139  0.29031  0.62863  1
 N  N8  1  -0.00139  0.20969  0.12863  1
