CIF file written using JARVIS-Tools package.
data_H5C8NO2
_symmetry_space_group_name_H-M  'P1'
_cell_length_a       5.04848
_cell_length_b       5.75429
_cell_length_c       10.5897
_cell_angle_alpha    90.5608
_cell_angle_beta     90.0031
_cell_angle_gamma    86.5386

_symmetry_Int_Tables_number  1
_chemical_formula_structural  H5C8NO2
_chemical_formula_sum  H0C6N2O4
_cell_volume  307.0587650059827
_cell_formula_units_Z  2
loop_
  _symmetry_equiv_pos_site_id
 _symmetry_equiv_pos_as_xyz
 1  'x, y, z'
loop_
 _atom_site_type_symbol
 _atom_site_label
 _atom_site_symmetry_multiplicity
 _atom_site_fract_x
 _atom_site_fract_y
 _atom_site_fract_z
 _atom_site_fract_occupancy
 C  C1  1  0.75153  0.71843  0.82352  1
 C  C2  1  0.14633  0.94207  0.51237  1
 C  C3  1  0.41874  0.68048  0.34866  1
 C  C4  1  0.61380  0.52859  0.42039  1
 C  C5  1  0.57253  0.40873  0.53285  1
 C  C6  1  0.75000  0.22260  0.56715  1
 C  C7  1  0.97016  0.15889  0.49115  1
 C  C8  1  0.84441  0.47344  0.34965  1
 C  C9  1  0.02184  0.29511  0.38555  1
 C  C10  1  0.40744  0.17462  0.04370  1
 C  C11  1  0.60657  0.02199  0.97335  1
 C  C12  1  0.14487  0.43663  0.87879  1
 C  C13  1  0.83227  0.96464  0.04672  1
 C  C14  1  0.01125  0.78594  0.01078  1
 C  C15  1  0.96646  0.65262  0.90173  1
 C  C16  1  0.57181  0.90377  0.85848  1
 H  H1  1  0.15717  0.93682  0.31939  1
 H  H2  1  0.87767  0.56889  0.26342  1
 H  H3  1  0.39771  0.45144  0.59063  1
 H  H4  1  0.71144  0.12262  0.65125  1
 H  H5  1  0.19883  0.26082  0.32846  1
 H  H6  1  0.18487  0.74971  0.06981  1
 H  H7  1  0.13122  0.42093  0.07093  1
 H  H8  1  0.40014  0.94716  0.79910  1
 H  H9  1  0.71874  0.62046  0.73708  1
 H  H10  1  0.86017  0.05898  0.13487  1
 N  N1  1  0.24167  0.85447  0.39547  1
 N  N2  1  0.22634  0.34249  0.99557  1
 O  O1  1  0.20637  0.34984  0.77603  1
 O  O2  1  0.19482  0.84872  0.61399  1
 O  O3  1  0.41592  0.65409  0.23225  1
 O  O4  1  0.40044  0.15288  0.16009  1
