CIF file written using JARVIS-Tools package.
data_SnH26C14O4
_symmetry_space_group_name_H-M  'P1'
_cell_length_a       4.91966
_cell_length_b       8.28974
_cell_length_c       10.7116
_cell_angle_alpha    65.7623
_cell_angle_beta     79.7322
_cell_angle_gamma    73.1341

_symmetry_Int_Tables_number  1
_chemical_formula_structural  SnH26C14O4
_chemical_formula_sum  SnH26C4O4
_cell_volume  380.32745433877585
_cell_formula_units_Z  1
loop_
  _symmetry_equiv_pos_site_id
 _symmetry_equiv_pos_as_xyz
 1  'x, y, z'
loop_
 _atom_site_type_symbol
 _atom_site_label
 _atom_site_symmetry_multiplicity
 _atom_site_fract_x
 _atom_site_fract_y
 _atom_site_fract_z
 _atom_site_fract_occupancy
 C  C1  1  0.35648  0.90850  0.37054  1
 C  C2  1  0.77063  0.82392  0.05035  1
 C  C3  1  -0.01052  0.43366  0.66547  1
 C  C4  1  0.65393  0.90931  0.90720  1
 C  C5  1  0.02518  0.09135  0.76479  1
 C  C6  1  0.84538  0.62361  0.56604  1
 C  C7  1  0.88377  0.93745  0.78822  1
 C  C8  1  0.98399  0.64354  0.07076  1
 C  C9  1  0.40008  0.89018  0.51579  1
 C  C10  1  0.53863  0.69717  0.61204  1
 C  C11  1  0.15135  0.09001  0.30217  1
 C  C12  1  0.56608  0.42681  0.35165  1
 C  C13  1  0.84918  0.28170  0.68419  1
 C  C14  1  0.56785  0.29969  0.00483  1
 H  H1  1  0.78672  0.96740  0.69332  1
 H  H2  1  0.04628  0.80775  0.80614  1
 H  H3  1  0.99777  0.43918  0.76611  1
 H  H4  1  0.85226  0.62015  0.46358  1
 H  H5  1  0.96884  0.72110  0.55384  1
 H  H6  1  0.63378  0.30403  0.73454  1
 H  H7  1  0.59088  0.79845  0.12752  1
 H  H8  1  0.40709  0.60417  0.62416  1
 H  H9  1  0.75108  0.47749  0.34676  1
 H  H10  1  0.56900  0.29917  0.44068  1
 H  H11  1  0.78578  0.24031  0.97514  1
 H  H12  1  0.43278  0.20404  0.03339  1
 H  H13  1  0.53735  0.69878  0.71484  1
 H  H14  1  0.36627  0.52718  0.35510  1
 H  H15  1  0.52794  0.98514  0.50475  1
 H  H16  1  0.06874  0.08435  0.86445  1
 H  H17  1  0.19116  0.93688  0.56307  1
 H  H18  1  0.56129  0.90557  0.30917  1
 H  H19  1  0.82347  0.28781  0.58228  1
 H  H20  1  0.47690  0.42680  0.92205  1
 H  H21  1  0.21246  0.39716  0.62665  1
 H  H22  1  0.23462  0.07036  0.70878  1
 H  H23  1  0.50327  0.04031  0.89708  1
 H  H24  1  0.53077  0.82071  0.90272  1
 H  H25  1  0.27106  0.79797  0.37467  1
 H  H26  1  0.87175  0.91337  0.06864  1
 O  O1  1  0.91052  0.51740  0.05485  1
 O  O2  1  0.21469  0.23481  0.29025  1
 O  O3  1  0.23433  0.62802  0.09868  1
 O  O4  1  0.91556  0.09260  0.26553  1
 Sn  Sn1  1  0.57752  0.36544  0.17594  1
