CIF file written using JARVIS-Tools package.
data_NaNbSe2O7
_symmetry_space_group_name_H-M  'Cmc2_1'
_cell_length_a       6.67381
_cell_length_b       6.67381
_cell_length_c       7.42372
_cell_angle_alpha    90
_cell_angle_beta     90
_cell_angle_gamma    110.602

_symmetry_Int_Tables_number  36
_chemical_formula_structural  NaNbSe2O7
_chemical_formula_sum  Na2Nb2Se4O4
_cell_volume  309.50480893667236
_cell_formula_units_Z  2
loop_
  _symmetry_equiv_pos_site_id
 _symmetry_equiv_pos_as_xyz
 1  'x, y, z'
loop_
 _atom_site_type_symbol
 _atom_site_label
 _atom_site_symmetry_multiplicity
 _atom_site_fract_x
 _atom_site_fract_y
 _atom_site_fract_z
 _atom_site_fract_occupancy
 Na  Na1  1  0.97429  0.97429  0.36564  1
 Na  Na2  1  0.02571  0.02571  0.86564  1
 Nb  Nb1  1  0.51200  0.51200  0.89613  1
 Nb  Nb2  1  0.48800  0.48800  0.39613  1
 O  O1  1  0.55003  0.81009  0.81301  1
 O  O2  1  0.81009  0.55003  0.81301  1
 O  O3  1  0.41029  0.41029  0.63385  1
 O  O4  1  0.18991  0.44997  0.31301  1
 O  O5  1  0.54760  0.80508  0.44228  1
 O  O6  1  0.44997  0.18991  0.31301  1
 O  O7  1  0.45240  0.19492  0.94228  1
 O  O8  1  0.19492  0.45240  0.94228  1
 O  O9  1  0.11751  0.83328  0.62263  1
 O  O10  1  0.80508  0.54760  0.44228  1
 O  O11  1  0.16672  0.88249  0.12263  1
 O  O12  1  0.88249  0.16672  0.12263  1
 O  O13  1  0.83328  0.11751  0.62263  1
 O  O14  1  0.58971  0.58971  0.13385  1
 Se  Se1  1  0.01438  0.43240  0.12574  1
 Se  Se2  1  0.43240  0.01438  0.12574  1
 Se  Se3  1  0.98562  0.56760  0.62574  1
 Se  Se4  1  0.56760  0.98562  0.62574  1
