CIF file written using JARVIS-Tools package.
data_Ca2AlSbO5
_symmetry_space_group_name_H-M  'Cc'
_cell_length_a       8.42012
_cell_length_b       8.42012
_cell_length_c       5.56029
_cell_angle_alpha    75.186
_cell_angle_beta     75.186
_cell_angle_gamma    40.6756

_symmetry_Int_Tables_number  9
_chemical_formula_structural  Ca2AlSbO5
_chemical_formula_sum  Ca4Al2Sb2O0
_cell_volume  247.20365513915675
_cell_formula_units_Z  2
loop_
  _symmetry_equiv_pos_site_id
 _symmetry_equiv_pos_as_xyz
 1  'x, y, z'
loop_
 _atom_site_type_symbol
 _atom_site_label
 _atom_site_symmetry_multiplicity
 _atom_site_fract_x
 _atom_site_fract_y
 _atom_site_fract_z
 _atom_site_fract_occupancy
 Al  Al1  1  0.30323  0.67811  0.73990  1
 Al  Al2  1  0.67811  0.30323  0.23990  1
 Ca  Ca1  1  0.64575  0.10440  0.82219  1
 Ca  Ca2  1  0.89377  0.34338  0.60619  1
 Ca  Ca3  1  0.34338  0.89377  0.10619  1
 Ca  Ca4  1  0.10440  0.64575  0.32219  1
 O  O1  1  0.33179  0.28332  0.12435  1
 O  O2  1  0.57052  0.43476  0.92738  1
 O  O3  1  0.72170  0.05243  0.35945  1
 O  O4  1  0.43476  0.57052  0.42738  1
 O  O5  1  0.05243  0.72170  0.85945  1
 O  O6  1  0.28332  0.33179  0.62435  1
 O  O7  1  0.64187  0.83479  0.80848  1
 O  O8  1  0.18381  0.95014  0.78864  1
 O  O9  1  0.95014  0.18381  0.28864  1
 O  O10  1  0.83479  0.64187  0.30848  1
 Sb  Sb1  1  0.01720  0.48711  0.96140  1
 Sb  Sb2  1  0.48711  0.01720  0.46140  1
