CIF file written using JARVIS-Tools package.
data_SnH9C9NO4
_symmetry_space_group_name_H-M  'P1'
_cell_length_a       6.37953
_cell_length_b       8.68529
_cell_length_c       9.42929
_cell_angle_alpha    77.028
_cell_angle_beta     76.5429
_cell_angle_gamma    74.2133

_symmetry_Int_Tables_number  1
_chemical_formula_structural  SnH9C9NO4
_chemical_formula_sum  Sn2H8C8N2O8
_cell_volume  481.6449509553436
_cell_formula_units_Z  2
loop_
  _symmetry_equiv_pos_site_id
 _symmetry_equiv_pos_as_xyz
 1  'x, y, z'
loop_
 _atom_site_type_symbol
 _atom_site_label
 _atom_site_symmetry_multiplicity
 _atom_site_fract_x
 _atom_site_fract_y
 _atom_site_fract_z
 _atom_site_fract_occupancy
 C  C1  1  0.00340  0.11749  0.16223  1
 C  C2  1  0.34653  0.15086  0.03133  1
 C  C3  1  0.05170  0.38662  0.06401  1
 C  C4  1  0.27394  0.32051  0.01197  1
 C  C5  1  0.85928  0.01331  0.26454  1
 C  C6  1  0.46163  0.63976  0.17978  1
 C  C7  1  0.77431  0.32034  0.51193  1
 C  C8  1  0.91078  0.83850  0.01803  1
 C  C9  1  0.55208  0.38648  0.56397  1
 C  C10  1  0.50370  0.11737  0.66222  1
 C  C11  1  0.84685  0.15068  0.53132  1
 C  C12  1  0.93121  0.42805  0.43320  1
 C  C13  1  0.96191  0.63954  0.67972  1
 C  C14  1  0.41099  0.83819  0.51820  1
 C  C15  1  0.35949  0.01327  0.76454  1
 C  C16  1  0.41565  0.28373  0.64189  1
 C  C17  1  0.91530  0.28384  0.14192  1
 C  C18  1  0.43082  0.42824  0.93326  1
 H  H1  1  0.01653  0.09564  0.48495  1
 H  H2  1  0.74257  0.32800  0.18933  1
 H  H3  1  0.89131  0.78626  0.92817  1
 H  H4  1  0.82292  0.78656  0.12433  1
 H  H5  1  0.51622  0.09584  -0.01504  1
 H  H6  1  0.98770  0.51739  0.04450  1
 H  H7  1  0.50377  0.71984  0.23713  1
 H  H8  1  0.85550  0.97052  -0.00644  1
 H  H9  1  0.36982  0.55532  0.25715  1
 H  H10  1  0.61068  0.57421  0.11498  1
 H  H11  1  0.87007  0.55508  0.75705  1
 H  H12  1  0.48811  0.51725  0.54444  1
 H  H13  1  0.32329  0.78626  0.62458  1
 H  H14  1  0.35564  0.97020  0.49370  1
 H  H15  1  0.00404  0.71957  0.73715  1
 H  H16  1  0.39140  0.78588  0.42843  1
 H  H17  1  0.11096  0.57402  0.61492  1
 H  H18  1  0.24293  0.32792  0.68928  1
 N  N1  1  0.21371  0.05027  0.10159  1
 N  N2  1  0.71400  0.05012  0.60159  1
 O  O1  1  0.96876  0.88288  0.34325  1
 O  O2  1  0.63222  0.36911  0.90176  1
 O  O3  1  0.65542  0.05570  0.27949  1
 O  O4  1  0.15564  0.05571  0.77940  1
 O  O5  1  0.33435  0.58294  0.90019  1
 O  O6  1  0.46883  0.88288  0.84335  1
 O  O7  1  0.13261  0.36890  0.40171  1
 O  O8  1  0.83477  0.58276  0.40012  1
 Sn  Sn1  1  0.25766  0.77947  0.02492  1
 Sn  Sn2  1  0.75792  0.77928  0.52489  1
