CIF file written using JARVIS-Tools package.
data_Cr2CuO4
_symmetry_space_group_name_H-M  'Fd-3m'
_cell_length_a       5.88946
_cell_length_b       5.88946
_cell_length_c       5.89207
_cell_angle_alpha    59.9853
_cell_angle_beta     59.9853
_cell_angle_gamma    89.9552

_symmetry_Int_Tables_number  227
_chemical_formula_structural  Cr2CuO4
_chemical_formula_sum  Cr4Cu2O8
_cell_volume  144.50429407849
_cell_formula_units_Z  2
loop_
  _symmetry_equiv_pos_site_id
 _symmetry_equiv_pos_as_xyz
 1  'x, y, z'
loop_
 _atom_site_type_symbol
 _atom_site_label
 _atom_site_symmetry_multiplicity
 _atom_site_fract_x
 _atom_site_fract_y
 _atom_site_fract_z
 _atom_site_fract_occupancy
 Cr  Cr1  1  0.62500  0.87500  0.75000  1
 Cr  Cr2  1  0.12500  0.37500  0.25000  1
 Cr  Cr3  1  0.62500  0.37500  0.25000  1
 Cr  Cr4  1  0.62500  0.37500  0.75000  1
 Cu  Cu1  1  0.25001  0.74999  0.50000  1
 Cu  Cu2  1  -0.00001  0.00001  -0.00000  1
 O  O1  1  0.38882  0.16587  0.22265  1
 O  O2  1  0.38851  0.61149  0.77734  1
 O  O3  1  0.86149  0.13851  0.72266  1
 O  O4  1  0.86118  0.58413  0.27735  1
 O  O5  1  0.83413  0.61118  0.77735  1
 O  O6  1  0.38851  0.61149  0.22266  1
 O  O7  1  0.86149  0.13851  0.27734  1
 O  O8  1  0.41587  0.13882  0.72265  1
