CIF file written using JARVIS-Tools package.
data_NaSnCl3
_symmetry_space_group_name_H-M  'Cm'
_cell_length_a       5.66524
_cell_length_b       5.66456
_cell_length_c       5.70604
_cell_angle_alpha    64.9013
_cell_angle_beta     65.026
_cell_angle_gamma    89.505

_symmetry_Int_Tables_number  8
_chemical_formula_structural  NaSnCl3
_chemical_formula_sum  NaSnCl3
_cell_volume  147.04252123799864
_cell_formula_units_Z  1
loop_
  _symmetry_equiv_pos_site_id
 _symmetry_equiv_pos_as_xyz
 1  'x, y, z'
loop_
 _atom_site_type_symbol
 _atom_site_label
 _atom_site_symmetry_multiplicity
 _atom_site_fract_x
 _atom_site_fract_y
 _atom_site_fract_z
 _atom_site_fract_occupancy
 Cl  Cl1  1  0.46171  -0.03978  0.55613  1
 Cl  Cl2  1  -0.05176  0.47368  0.55682  1
 Cl  Cl3  1  0.62392  0.63628  0.13264  1
 Na  Na1  1  0.96581  0.97795  0.56729  1
 Sn  Sn1  1  0.44032  0.45187  0.67712  1
