CIF file written using JARVIS-Tools package.
data_Li2CoCuO4
_symmetry_space_group_name_H-M  'Imm2'
_cell_length_a       3.97537
_cell_length_b       7.59204
_cell_length_c       5.06481
_cell_angle_alpha    104.529
_cell_angle_beta     113.112
_cell_angle_gamma    74.8217

_symmetry_Int_Tables_number  44
_chemical_formula_structural  Li2CoCuO4
_chemical_formula_sum  Li4Co2Cu2O8
_cell_volume  133.7864081875679
_cell_formula_units_Z  2
loop_
  _symmetry_equiv_pos_site_id
 _symmetry_equiv_pos_as_xyz
 1  'x, y, z'
loop_
 _atom_site_type_symbol
 _atom_site_label
 _atom_site_symmetry_multiplicity
 _atom_site_fract_x
 _atom_site_fract_y
 _atom_site_fract_z
 _atom_site_fract_occupancy
 Co  Co1  1  0.00039  0.49984  0.50059  1
 Co  Co2  1  0.00039  -0.00017  0.00057  1
 Cu  Cu1  1  0.24969  0.62516  0.12453  1
 Cu  Cu2  1  0.24970  0.12517  0.62456  1
 Li  Li1  1  0.75156  0.87424  0.37729  1
 Li  Li2  1  0.75160  0.37423  0.87737  1
 Li  Li3  1  0.49950  0.75024  0.74927  1
 Li  Li4  1  0.49960  0.25019  0.24943  1
 O  O1  1  0.01571  0.24211  0.27357  1
 O  O2  1  0.01568  0.74212  0.77353  1
 O  O3  1  0.48330  0.00832  0.97497  1
 O  O4  1  0.48330  0.50831  0.47496  1
 O  O5  1  0.22578  0.88711  0.33864  1
 O  O6  1  0.22578  0.38714  0.83867  1
 O  O7  1  0.77403  0.61299  0.16103  1
 O  O8  1  0.77402  0.11300  0.66102  1
