CIF file written using JARVIS-Tools package.
data_Na2FeO3
_symmetry_space_group_name_H-M  'C2/m'
_cell_length_a       5.19125
_cell_length_b       8.98536
_cell_length_c       5.56075
_cell_angle_alpha    73.9029
_cell_angle_beta     99.2031
_cell_angle_gamma    89.9349

_symmetry_Int_Tables_number  12
_chemical_formula_structural  Na2FeO3
_chemical_formula_sum  Na8Fe4O2
_cell_volume  245.72209628270258
_cell_formula_units_Z  4
loop_
  _symmetry_equiv_pos_site_id
 _symmetry_equiv_pos_as_xyz
 1  'x, y, z'
loop_
 _atom_site_type_symbol
 _atom_site_label
 _atom_site_symmetry_multiplicity
 _atom_site_fract_x
 _atom_site_fract_y
 _atom_site_fract_z
 _atom_site_fract_occupancy
 Fe  Fe1  1  0.99912  0.66636  -0.00000  1
 Fe  Fe2  1  0.50090  0.83362  1.00000  1
 Fe  Fe3  1  0.49912  0.16636  -0.00001  1
 Fe  Fe4  1  0.00090  0.33362  1.00000  1
 Na  Na1  1  0.76420  0.92146  0.50002  1
 Na  Na2  1  0.26420  0.42145  0.50002  1
 Na  Na3  1  0.74997  0.25003  0.49994  1
 Na  Na4  1  0.23576  0.07860  0.50005  1
 Na  Na5  1  0.50000  0.49999  0.00001  1
 Na  Na6  1  -0.00000  0.99999  0.00001  1
 Na  Na7  1  0.24997  0.75003  0.49995  1
 Na  Na8  1  0.73576  0.57860  0.50006  1
 O  O1  1  0.15529  0.22281  0.80231  1
 O  O2  1  0.41186  0.96622  0.19768  1
 O  O3  1  0.91186  0.46622  0.19768  1
 O  O4  1  0.84472  0.77716  0.19769  1
 O  O5  1  0.34472  0.27717  0.19768  1
 O  O6  1  0.84551  0.15448  0.19867  1
 O  O7  1  0.15451  0.84550  0.80132  1
 O  O8  1  0.65451  0.34550  0.80132  1
 O  O9  1  0.58816  0.03377  0.80230  1
 O  O10  1  0.65529  0.72281  0.80231  1
 O  O11  1  0.34551  0.65448  0.19868  1
 O  O12  1  0.08816  0.53377  0.80230  1
