CIF file written using JARVIS-Tools package.
data_Tb2LaRuO7
_symmetry_space_group_name_H-M  'Cmcm'
_cell_length_a       6.47567
_cell_length_b       6.47567
_cell_length_c       7.51764
_cell_angle_alpha    90
_cell_angle_beta     90
_cell_angle_gamma    110.316

_symmetry_Int_Tables_number  63
_chemical_formula_structural  Tb2LaRuO7
_chemical_formula_sum  Tb4La2Ru2O4
_cell_volume  295.6367105783809
_cell_formula_units_Z  2
loop_
  _symmetry_equiv_pos_site_id
 _symmetry_equiv_pos_as_xyz
 1  'x, y, z'
loop_
 _atom_site_type_symbol
 _atom_site_label
 _atom_site_symmetry_multiplicity
 _atom_site_fract_x
 _atom_site_fract_y
 _atom_site_fract_z
 _atom_site_fract_occupancy
 La  La1  1  0.00000  0.00000  0.50000  1
 La  La2  1  0.00000  0.00000  0.00000  1
 O  O1  1  0.11532  0.83616  0.75000  1
 O  O2  1  0.44418  0.18487  0.53889  1
 O  O3  1  0.81513  0.55582  0.46111  1
 O  O4  1  0.41062  0.41062  0.25000  1
 O  O5  1  0.81513  0.55582  0.03889  1
 O  O6  1  0.55582  0.81513  0.46111  1
 O  O7  1  0.44418  0.18487  0.96111  1
 O  O8  1  0.55582  0.81513  0.03889  1
 O  O9  1  0.18487  0.44418  0.96111  1
 O  O10  1  0.58938  0.58938  0.75000  1
 O  O11  1  0.18487  0.44418  0.53889  1
 O  O12  1  0.83616  0.11532  0.75000  1
 O  O13  1  0.88468  0.16384  0.25000  1
 O  O14  1  0.16384  0.88468  0.25000  1
 Ru  Ru1  1  0.50000  0.50000  0.00000  1
 Ru  Ru2  1  0.50000  0.50000  0.50000  1
 Tb  Tb1  1  0.07531  0.52101  0.25000  1
 Tb  Tb2  1  0.47899  0.92469  0.75000  1
 Tb  Tb3  1  0.92469  0.47899  0.75000  1
 Tb  Tb4  1  0.52101  0.07531  0.25000  1
