CIF file written using JARVIS-Tools package.
data_NaSnCl3
_symmetry_space_group_name_H-M  'R3m'
_cell_length_a       5.41144
_cell_length_b       5.41144
_cell_length_c       5.41144
_cell_angle_alpha    86.7682
_cell_angle_beta     86.7682
_cell_angle_gamma    86.7681

_symmetry_Int_Tables_number  160
_chemical_formula_structural  NaSnCl3
_chemical_formula_sum  NaSnCl3
_cell_volume  157.7382789466801
_cell_formula_units_Z  1
loop_
  _symmetry_equiv_pos_site_id
 _symmetry_equiv_pos_as_xyz
 1  'x, y, z'
loop_
 _atom_site_type_symbol
 _atom_site_label
 _atom_site_symmetry_multiplicity
 _atom_site_fract_x
 _atom_site_fract_y
 _atom_site_fract_z
 _atom_site_fract_occupancy
 Cl  Cl1  1  0.83787  0.83787  0.37020  1
 Cl  Cl2  1  0.83787  0.37020  0.83787  1
 Cl  Cl3  1  0.37020  0.83787  0.83787  1
 Na  Na1  1  0.87608  0.87608  0.87608  1
 Sn  Sn1  1  0.51773  0.51773  0.51773  1
