CIF file written using JARVIS-Tools package.
data_SnH22C12O6
_symmetry_space_group_name_H-M  'P1'
_cell_length_a       5.10424
_cell_length_b       6.32134
_cell_length_c       11.4655
_cell_angle_alpha    81.2292
_cell_angle_beta     101.144
_cell_angle_gamma    87.6412

_symmetry_Int_Tables_number  1
_chemical_formula_structural  SnH22C12O6
_chemical_formula_sum  SnH22C2O6
_cell_volume  357.7697006944906
_cell_formula_units_Z  1
loop_
  _symmetry_equiv_pos_site_id
 _symmetry_equiv_pos_as_xyz
 1  'x, y, z'
loop_
 _atom_site_type_symbol
 _atom_site_label
 _atom_site_symmetry_multiplicity
 _atom_site_fract_x
 _atom_site_fract_y
 _atom_site_fract_z
 _atom_site_fract_occupancy
 C  C1  1  0.41975  0.62712  0.65341  1
 C  C2  1  0.85758  0.07564  0.84022  1
 C  C3  1  0.48875  0.76374  0.54284  1
 C  C4  1  0.13062  0.35971  0.74255  1
 C  C5  1  0.04808  0.05796  0.96282  1
 C  C6  1  0.22005  0.45770  0.62737  1
 C  C7  1  -0.01088  0.15225  0.73324  1
 C  C8  1  0.46467  0.06275  0.29502  1
 C  C9  1  0.26035  0.92968  0.47456  1
 C  C10  1  0.56049  0.24919  0.22249  1
 C  C11  1  0.26600  0.88056  0.99279  1
 C  C12  1  0.35774  0.12405  0.40238  1
 H  H1  1  0.30784  0.33007  0.81650  1
 H  H2  1  0.54799  0.65905  0.48199  1
 H  H3  1  0.66712  0.84985  0.57292  1
 H  H4  1  -0.00093  0.48031  0.76732  1
 H  H5  1  0.04350  0.52634  0.55792  1
 H  H6  1  0.77145  0.92101  0.83039  1
 H  H7  1  0.93559  0.02908  0.03616  1
 H  H8  1  0.11115  0.85497  0.41369  1
 H  H9  1  0.11643  0.58484  0.22948  1
 H  H10  1  0.15595  0.98734  0.54041  1
 H  H11  1  0.51658  0.19381  0.46149  1
 H  H12  1  0.19295  0.24904  0.36887  1
 H  H13  1  0.29904  0.00319  0.23467  1
 H  H14  1  0.62793  0.93572  0.32174  1
 H  H15  1  0.13481  0.02509  0.72408  1
 H  H16  1  -0.16603  0.17523  0.64983  1
 H  H17  1  0.31615  0.33095  0.59040  1
 H  H18  1  0.94240  0.58018  0.93629  1
 H  H19  1  0.60269  0.54507  0.71193  1
 H  H20  1  0.34150  0.73437  0.70827  1
 H  H21  1  0.14061  0.20893  0.97377  1
 H  H22  1  0.69261  0.19217  0.84091  1
 O  O1  1  0.24232  0.69651  0.96190  1
 O  O2  1  0.96394  0.69283  0.21042  1
 O  O3  1  0.77841  0.24411  0.18529  1
 O  O4  1  0.41247  0.43179  0.19348  1
 O  O5  1  0.49045  0.91137  0.06185  1
 O  O6  1  0.76164  0.53068  0.93959  1
 Sn  Sn1  1  0.67731  0.59404  0.09125  1
