CIF file written using JARVIS-Tools package.
data_TiH2C2O6
_symmetry_space_group_name_H-M  'P1'
_cell_length_a       4.83064
_cell_length_b       5.61043
_cell_length_c       5.60961
_cell_angle_alpha    58.2496
_cell_angle_beta     64.5495
_cell_angle_gamma    64.5621

_symmetry_Int_Tables_number  1
_chemical_formula_structural  TiH2C2O6
_chemical_formula_sum  TiH2C2O6
_cell_volume  112.5636567312332
_cell_formula_units_Z  1
loop_
  _symmetry_equiv_pos_site_id
 _symmetry_equiv_pos_as_xyz
 1  'x, y, z'
loop_
 _atom_site_type_symbol
 _atom_site_label
 _atom_site_symmetry_multiplicity
 _atom_site_fract_x
 _atom_site_fract_y
 _atom_site_fract_z
 _atom_site_fract_occupancy
 C  C1  1  0.56550  0.79121  0.55485  1
 C  C2  1  0.38802  0.69690  0.46051  1
 H  H1  1  0.00241  0.67266  0.03902  1
 H  H2  1  0.94898  0.21209  0.57742  1
 O  O1  1  0.09305  0.46576  0.15374  1
 O  O2  1  0.85981  0.09796  0.78507  1
 O  O3  1  0.62769  0.03616  0.37240  1
 O  O4  1  0.63119  0.62410  0.79362  1
 O  O5  1  0.32599  0.87924  0.21549  1
 O  O6  1  0.32227  0.45817  0.62763  1
 Ti  Ti1  1  0.47689  0.23816  0.01343  1
