CIF file written using JARVIS-Tools package.
data_SrLi2SiO4
_symmetry_space_group_name_H-M  'P3_121'
_cell_length_a       5.03627
_cell_length_b       5.03627
_cell_length_c       12.4862
_cell_angle_alpha    90
_cell_angle_beta     90
_cell_angle_gamma    120

_symmetry_Int_Tables_number  152
_chemical_formula_structural  SrLi2SiO4
_chemical_formula_sum  Sr3Li6Si3O2
_cell_volume  274.27082650199105
_cell_formula_units_Z  3
loop_
  _symmetry_equiv_pos_site_id
 _symmetry_equiv_pos_as_xyz
 1  'x, y, z'
loop_
 _atom_site_type_symbol
 _atom_site_label
 _atom_site_symmetry_multiplicity
 _atom_site_fract_x
 _atom_site_fract_y
 _atom_site_fract_z
 _atom_site_fract_occupancy
 Li  Li1  1  0.07193  0.40849  0.92077  1
 Li  Li2  1  0.66344  0.59151  0.74590  1
 Li  Li3  1  0.92807  0.33656  0.41256  1
 Li  Li4  1  0.40849  0.07193  0.07923  1
 Li  Li5  1  0.33656  0.92807  0.58744  1
 Li  Li6  1  0.59151  0.66344  0.25410  1
 O  O1  1  0.48773  0.03566  0.44015  1
 O  O2  1  0.96434  0.45207  0.77348  1
 O  O3  1  0.54793  0.51227  0.10681  1
 O  O4  1  0.76105  0.06887  0.00342  1
 O  O5  1  0.93113  0.69219  0.33675  1
 O  O6  1  0.30781  0.23895  0.67009  1
 O  O7  1  0.06887  0.76105  0.99658  1
 O  O8  1  0.45207  0.96434  0.22652  1
 O  O9  1  0.69219  0.93113  0.66325  1
 O  O10  1  0.23895  0.30781  0.32991  1
 O  O11  1  0.03566  0.48773  0.55985  1
 O  O12  1  0.51227  0.54793  0.89319  1
 Si  Si1  1  0.27848  0.00000  0.33333  1
 Si  Si2  1  0.72152  0.72152  0.00000  1
 Si  Si3  1  0.00000  0.27848  0.66667  1
 Sr  Sr1  1  -0.00000  0.41602  0.16667  1
 Sr  Sr2  1  0.58398  0.58398  0.50000  1
 Sr  Sr3  1  0.41602  -0.00000  0.83333  1
