CIF file written using JARVIS-Tools package.
data_TiH22C12O4
_symmetry_space_group_name_H-M  'P1'
_cell_length_a       4.85945
_cell_length_b       7.35608
_cell_length_c       9.6535
_cell_angle_alpha    80.0623
_cell_angle_beta     77.9192
_cell_angle_gamma    85.2945

_symmetry_Int_Tables_number  1
_chemical_formula_structural  TiH22C12O4
_chemical_formula_sum  TiH22C2O4
_cell_volume  331.9953146575142
_cell_formula_units_Z  1
loop_
  _symmetry_equiv_pos_site_id
 _symmetry_equiv_pos_as_xyz
 1  'x, y, z'
loop_
 _atom_site_type_symbol
 _atom_site_label
 _atom_site_symmetry_multiplicity
 _atom_site_fract_x
 _atom_site_fract_y
 _atom_site_fract_z
 _atom_site_fract_occupancy
 C  C1  1  0.63915  0.92393  0.58825  1
 C  C2  1  0.20721  0.58025  0.82145  1
 C  C3  1  0.82450  0.21185  0.64459  1
 C  C4  1  0.80034  0.10257  0.52965  1
 C  C5  1  0.63648  0.31902  0.04497  1
 C  C6  1  0.56696  0.83857  0.46646  1
 C  C7  1  0.79814  0.74150  0.22131  1
 C  C8  1  0.52785  0.66232  0.20384  1
 C  C9  1  0.48319  0.46058  0.27369  1
 C  C10  1  0.82211  0.74592  0.37719  1
 C  C11  1  0.68814  0.32710  0.19280  1
 C  C12  1  0.33765  0.02272  0.94989  1
 H  H1  1  0.22849  0.92603  0.90664  1
 H  H2  1  0.86091  0.60524  0.43372  1
 H  H3  1  0.41483  0.63688  0.80651  1
 H  H4  1  0.40349  0.73798  0.51231  1
 H  H5  1  0.47020  0.94861  0.39583  1
 H  H6  1  0.26057  0.00965  0.06612  1
 H  H7  1  0.90947  0.35858  0.18213  1
 H  H8  1  0.66793  0.18354  0.24923  1
 H  H9  1  0.01183  0.07417  0.46814  1
 H  H10  1  0.50626  0.44121  0.38651  1
 H  H11  1  0.56587  0.98991  0.92734  1
 H  H12  1  0.52516  0.67640  0.08868  1
 H  H13  1  0.34827  0.74910  0.24801  1
 H  H14  1  0.06491  0.62891  0.91330  1
 H  H15  1  0.80789  0.88406  0.16227  1
 H  H16  1  0.98404  0.66623  0.16784  1
 H  H17  1  0.26624  0.42576  0.27587  1
 H  H18  1  0.01060  0.82077  0.37421  1
 H  H19  1  0.11725  0.62301  0.72379  1
 H  H20  1  0.67901  0.19237  0.45881  1
 H  H21  1  0.76457  0.82380  0.65159  1
 H  H22  1  0.44352  -0.04260  0.66116  1
 O  O1  1  0.85462  0.27582  0.95094  1
 O  O2  1  0.60245  0.29188  0.70731  1
 O  O3  1  0.39409  0.34274  0.01858  1
 O  O4  1  0.06832  0.22364  0.67219  1
 Ti  Ti1  1  0.22327  0.28626  0.83709  1
