CIF file written using JARVIS-Tools package.
data_Y3TaO7
_symmetry_space_group_name_H-M  'Cmcm'
_cell_length_a       6.43751
_cell_length_b       6.43752
_cell_length_c       7.49593
_cell_angle_alpha    90
_cell_angle_beta     90
_cell_angle_gamma    109.577

_symmetry_Int_Tables_number  63
_chemical_formula_structural  Y3TaO7
_chemical_formula_sum  Y6Ta2O4
_cell_volume  292.6847577310507
_cell_formula_units_Z  2
loop_
  _symmetry_equiv_pos_site_id
 _symmetry_equiv_pos_as_xyz
 1  'x, y, z'
loop_
 _atom_site_type_symbol
 _atom_site_label
 _atom_site_symmetry_multiplicity
 _atom_site_fract_x
 _atom_site_fract_y
 _atom_site_fract_z
 _atom_site_fract_occupancy
 O  O1  1  0.06706  0.93294  0.25000  1
 O  O2  1  0.67726  0.92705  0.46746  1
 O  O3  1  0.92705  0.67726  0.53254  1
 O  O4  1  0.63778  0.36222  0.75000  1
 O  O5  1  0.92705  0.67726  0.96746  1
 O  O6  1  0.32274  0.07295  0.53254  1
 O  O7  1  0.67726  0.92705  0.03254  1
 O  O8  1  0.32274  0.07295  0.96746  1
 O  O9  1  0.07295  0.32274  0.03254  1
 O  O10  1  0.93294  0.06706  0.75000  1
 O  O11  1  0.36222  0.63778  0.25000  1
 O  O12  1  0.37070  0.62930  0.75000  1
 O  O13  1  0.62930  0.37070  0.25000  1
 O  O14  1  0.07295  0.32274  0.46746  1
 Ta  Ta1  1  0.00000  0.00000  0.00000  1
 Ta  Ta2  1  0.00000  0.00000  0.50000  1
 Y  Y1  1  -0.00006  0.46569  0.75000  1
 Y  Y2  1  0.46569  -0.00006  0.25000  1
 Y  Y3  1  0.00006  0.53431  0.25000  1
 Y  Y4  1  0.53431  0.00006  0.75000  1
 Y  Y5  1  0.50000  0.50000  0.00000  1
 Y  Y6  1  0.50000  0.50000  0.50000  1
