CIF file written using JARVIS-Tools package.
data_Li2V3O6
_symmetry_space_group_name_H-M  'C2/m'
_cell_length_a       4.99188
_cell_length_b       6.58894
_cell_length_c       6.58894
_cell_angle_alpha    97.6734
_cell_angle_beta     82.186
_cell_angle_gamma    97.814

_symmetry_Int_Tables_number  12
_chemical_formula_structural  Li2V3O6
_chemical_formula_sum  Li4V6O2
_cell_volume  211.24604034702517
_cell_formula_units_Z  2
loop_
  _symmetry_equiv_pos_site_id
 _symmetry_equiv_pos_as_xyz
 1  'x, y, z'
loop_
 _atom_site_type_symbol
 _atom_site_label
 _atom_site_symmetry_multiplicity
 _atom_site_fract_x
 _atom_site_fract_y
 _atom_site_fract_z
 _atom_site_fract_occupancy
 Li  Li1  1  -0.00002  0.66987  0.66986  1
 Li  Li2  1  0.50002  0.16986  0.16987  1
 Li  Li3  1  -0.00003  0.33012  0.33015  1
 Li  Li4  1  0.50003  0.83015  0.83012  1
 O  O1  1  0.12743  0.68662  0.96847  1
 O  O2  1  0.88474  0.63287  0.36708  1
 O  O3  1  0.61525  0.86708  0.13287  1
 O  O4  1  0.11525  0.36713  0.63292  1
 O  O5  1  0.38475  0.13292  0.86713  1
 O  O6  1  0.37258  0.81344  0.53156  1
 O  O7  1  0.37257  0.46848  0.18661  1
 O  O8  1  0.87259  0.96843  0.68657  1
 O  O9  1  0.12742  0.03157  0.31344  1
 O  O10  1  0.87258  0.31337  0.03153  1
 O  O11  1  0.62742  0.53153  0.81338  1
 O  O12  1  0.62742  0.18657  0.46844  1
 V  V1  1  0.25000  0.40719  0.90719  1
 V  V2  1  0.25000  0.09289  0.59289  1
 V  V3  1  0.75000  0.59281  0.09281  1
 V  V4  1  0.75000  0.90712  0.40712  1
 V  V5  1  0.24999  0.75003  0.25003  1
 V  V6  1  0.75001  0.24997  0.74997  1
