CIF file written using JARVIS-Tools package.
data_CaMn2O4
_symmetry_space_group_name_H-M  'Cmcm'
_cell_length_a       5.15503
_cell_length_b       5.15503
_cell_length_c       9.78421
_cell_angle_alpha    90
_cell_angle_beta     90
_cell_angle_gamma    145.311

_symmetry_Int_Tables_number  63
_chemical_formula_structural  CaMn2O4
_chemical_formula_sum  Ca2Mn4O8
_cell_volume  147.97523932280785
_cell_formula_units_Z  2
loop_
  _symmetry_equiv_pos_site_id
 _symmetry_equiv_pos_as_xyz
 1  'x, y, z'
loop_
 _atom_site_type_symbol
 _atom_site_label
 _atom_site_symmetry_multiplicity
 _atom_site_fract_x
 _atom_site_fract_y
 _atom_site_fract_z
 _atom_site_fract_occupancy
 Ca  Ca1  1  0.60877  0.39123  0.75000  1
 Ca  Ca2  1  0.39123  0.60877  0.25000  1
 Mn  Mn1  1  0.13445  0.86555  0.06811  1
 Mn  Mn2  1  0.86555  0.13445  0.93189  1
 Mn  Mn3  1  0.13445  0.86555  0.43189  1
 Mn  Mn4  1  0.86555  0.13445  0.56811  1
 O  O1  1  0.77192  0.22808  0.39361  1
 O  O2  1  0.22808  0.77192  0.60639  1
 O  O3  1  0.22808  0.77192  0.89361  1
 O  O4  1  0.77192  0.22808  0.10639  1
 O  O5  1  0.06364  0.93636  0.25000  1
 O  O6  1  0.93636  0.06364  0.75000  1
 O  O7  1  0.50000  0.50000  0.00000  1
 O  O8  1  0.50000  0.50000  0.50000  1
