CIF file written using JARVIS-Tools package.
data_CaH12C8O4
_symmetry_space_group_name_H-M  'P1'
_cell_length_a       4.19613
_cell_length_b       8.0092
_cell_length_c       12.1756
_cell_angle_alpha    82.8092
_cell_angle_beta     88.294
_cell_angle_gamma    87.37

_symmetry_Int_Tables_number  1
_chemical_formula_structural  CaH12C8O4
_chemical_formula_sum  Ca2H24C6O8
_cell_volume  405.42812227338453
_cell_formula_units_Z  2
loop_
  _symmetry_equiv_pos_site_id
 _symmetry_equiv_pos_as_xyz
 1  'x, y, z'
loop_
 _atom_site_type_symbol
 _atom_site_label
 _atom_site_symmetry_multiplicity
 _atom_site_fract_x
 _atom_site_fract_y
 _atom_site_fract_z
 _atom_site_fract_occupancy
 C  C1  1  0.49313  0.69826  0.38606  1
 C  C2  1  0.49315  0.19826  0.38606  1
 C  C3  1  0.66039  0.24330  0.48792  1
 C  C4  1  0.56762  0.82259  0.68576  1
 C  C5  1  0.56762  0.32259  0.68576  1
 C  C6  1  0.53429  0.67490  0.99275  1
 C  C7  1  0.53430  0.17490  0.99275  1
 C  C8  1  0.42369  0.78738  0.57878  1
 C  C9  1  0.66038  0.74330  0.48792  1
 C  C10  1  0.42370  0.28738  0.57878  1
 C  C11  1  0.40634  0.20627  0.10628  1
 C  C12  1  0.72714  0.65780  0.29324  1
 C  C13  1  0.72716  0.15780  0.29324  1
 C  C14  1  0.58238  0.58377  0.19651  1
 C  C15  1  0.58240  0.08377  0.19651  1
 C  C16  1  0.40634  0.70628  0.10628  1
 Ca  Ca1  1  0.92437  0.49509  0.84098  1
 Ca  Ca2  1  0.92437  -0.00491  0.84098  1
 H  H1  1  0.41685  0.98777  0.23135  1
 H  H2  1  0.90564  0.56365  0.33006  1
 H  H3  1  0.77696  0.51542  0.15590  1
 H  H4  1  0.90567  0.06365  0.33006  1
 H  H5  1  0.44788  0.33698  0.11543  1
 H  H6  1  0.81647  0.34911  0.46322  1
 H  H7  1  0.81806  0.13629  0.52120  1
 H  H8  1  0.81805  0.63629  0.52120  1
 H  H9  1  0.26746  0.18178  0.60261  1
 H  H10  1  0.26746  0.68178  0.60261  1
 H  H11  1  0.26516  0.89562  0.54931  1
 H  H12  1  0.77698  0.01542  0.15590  1
 H  H13  1  0.32229  0.30105  0.35576  1
 H  H14  1  0.32227  0.80106  0.35576  1
 H  H15  1  0.26517  0.39562  0.54931  1
 H  H16  1  0.34858  0.58795  0.41135  1
 H  H17  1  0.34860  0.08795  0.41135  1
 H  H18  1  0.14934  0.18965  0.11026  1
 H  H19  1  0.14934  0.68966  0.11026  1
 H  H20  1  0.41683  0.48777  0.23135  1
 H  H21  1  0.86120  0.26967  0.26215  1
 H  H22  1  0.86119  0.76966  0.26215  1
 H  H23  1  0.81646  0.84911  0.46322  1
 H  H24  1  0.44789  0.83699  0.11543  1
 O  O1  1  0.79360  0.24410  0.95727  1
 O  O2  1  0.42685  0.93035  0.74191  1
 O  O3  1  0.82843  0.74565  0.71794  1
 O  O4  1  0.82843  0.24566  0.71794  1
 O  O5  1  0.40369  0.57073  0.93861  1
 O  O6  1  0.40370  0.07073  0.93860  1
 O  O7  1  0.79360  0.74410  0.95727  1
 O  O8  1  0.42685  0.43035  0.74191  1
