CIF file written using JARVIS-Tools package.
data_Ba2LaMn2O7
_symmetry_space_group_name_H-M  'I4/mmm'
_cell_length_a       5.5924
_cell_length_b       10.8029
_cell_length_c       5.59233
_cell_angle_alpha    104.999
_cell_angle_beta     90
_cell_angle_gamma    90

_symmetry_Int_Tables_number  139
_chemical_formula_structural  Ba2LaMn2O7
_chemical_formula_sum  Ba4La2Mn4O4
_cell_volume  326.3456136452458
_cell_formula_units_Z  2
loop_
  _symmetry_equiv_pos_site_id
 _symmetry_equiv_pos_as_xyz
 1  'x, y, z'
loop_
 _atom_site_type_symbol
 _atom_site_label
 _atom_site_symmetry_multiplicity
 _atom_site_fract_x
 _atom_site_fract_y
 _atom_site_fract_z
 _atom_site_fract_occupancy
 Ba  Ba1  1  -0.00000  0.36309  0.68152  1
 Ba  Ba2  1  0.50000  0.36308  0.18152  1
 Ba  Ba3  1  0.50000  0.63691  0.81848  1
 Ba  Ba4  1  0.00000  0.63692  0.31848  1
 La  La1  1  -0.00000  0.00000  0.49999  1
 La  La2  1  0.50000  -0.00000  0.00001  1
 Mn  Mn1  1  -0.00000  0.81410  0.90707  1
 Mn  Mn2  1  0.50000  0.18590  0.59293  1
 Mn  Mn3  1  0.50000  0.81410  0.40707  1
 Mn  Mn4  1  -0.00000  0.18590  0.09293  1
 O  O1  1  0.50000  0.00000  0.49998  1
 O  O2  1  0.75000  0.17263  0.33631  1
 O  O3  1  0.00000  0.62935  0.81470  1
 O  O4  1  0.50000  0.62936  0.31472  1
 O  O5  1  0.50000  0.37065  0.68530  1
 O  O6  1  1.00000  -0.00000  0.00002  1
 O  O7  1  0.75000  0.17262  0.83630  1
 O  O8  1  0.25000  0.82737  0.16369  1
 O  O9  1  0.75000  0.82737  0.16369  1
 O  O10  1  0.25000  0.82738  0.66370  1
 O  O11  1  0.00000  0.37064  0.18528  1
 O  O12  1  0.25000  0.17263  0.33631  1
 O  O13  1  0.75000  0.82738  0.66370  1
 O  O14  1  0.25000  0.17262  0.83630  1
