CIF file written using JARVIS-Tools package.
data_ZnH4C4O4
_symmetry_space_group_name_H-M  'P1'
_cell_length_a       3.77068
_cell_length_b       4.90736
_cell_length_c       7.46039
_cell_angle_alpha    69.2059
_cell_angle_beta     73.7316
_cell_angle_gamma    66.5194

_symmetry_Int_Tables_number  1
_chemical_formula_structural  ZnH4C4O4
_chemical_formula_sum  ZnH4C4O4
_cell_volume  116.81038311130892
_cell_formula_units_Z  1
loop_
  _symmetry_equiv_pos_site_id
 _symmetry_equiv_pos_as_xyz
 1  'x, y, z'
loop_
 _atom_site_type_symbol
 _atom_site_label
 _atom_site_symmetry_multiplicity
 _atom_site_fract_x
 _atom_site_fract_y
 _atom_site_fract_z
 _atom_site_fract_occupancy
 C  C1  1  0.71257  0.22176  0.54332  1
 C  C2  1  0.69607  0.19896  0.75403  1
 C  C3  1  0.41908  0.48530  0.81639  1
 C  C4  1  0.33351  0.45510  0.03252  1
 H  H1  1  0.61584  -0.00436  0.84729  1
 H  H2  1  -0.00349  0.14659  0.77428  1
 H  H3  1  0.13208  0.55645  0.77315  1
 H  H4  1  0.52004  0.68315  0.73880  1
 O  O1  1  0.82173  0.95899  0.50936  1
 O  O2  1  0.61937  0.47895  0.41534  1
 O  O3  1  0.18629  0.71608  0.07199  1
 O  O4  1  0.38239  0.19453  0.15890  1
 Zn  Zn1  1  0.81219  0.84254  0.28932  1
