CIF file written using JARVIS-Tools package.
data_Sr3ZnCoO6
_symmetry_space_group_name_H-M  'R-3c'
_cell_length_a       6.60069
_cell_length_b       6.60069
_cell_length_c       6.60068
_cell_angle_alpha    92.4005
_cell_angle_beta     92.4004
_cell_angle_gamma    92.4004

_symmetry_Int_Tables_number  167
_chemical_formula_structural  Sr3ZnCoO6
_chemical_formula_sum  Sr6Zn2Co2O2
_cell_volume  286.8069673887284
_cell_formula_units_Z  2
loop_
  _symmetry_equiv_pos_site_id
 _symmetry_equiv_pos_as_xyz
 1  'x, y, z'
loop_
 _atom_site_type_symbol
 _atom_site_label
 _atom_site_symmetry_multiplicity
 _atom_site_fract_x
 _atom_site_fract_y
 _atom_site_fract_z
 _atom_site_fract_occupancy
 Co  Co1  1  0.50000  0.50000  0.50000  1
 Co  Co2  1  0.00000  0.00000  0.00000  1
 O  O1  1  0.08750  0.95843  0.27640  1
 O  O2  1  0.27640  0.08750  0.95843  1
 O  O3  1  0.41250  0.22360  0.54157  1
 O  O4  1  0.54157  0.41250  0.22360  1
 O  O5  1  0.91250  0.04157  0.72360  1
 O  O6  1  0.22360  0.54157  0.41250  1
 O  O7  1  0.04157  0.72360  0.91250  1
 O  O8  1  0.77640  0.45843  0.58750  1
 O  O9  1  0.58750  0.77640  0.45843  1
 O  O10  1  0.95843  0.27640  0.08750  1
 O  O11  1  0.72360  0.91250  0.04157  1
 O  O12  1  0.45843  0.58750  0.77640  1
 Sr  Sr1  1  0.11534  0.38466  0.75000  1
 Sr  Sr2  1  0.38466  0.75000  0.11534  1
 Sr  Sr3  1  0.75000  0.11534  0.38466  1
 Sr  Sr4  1  0.61534  0.25000  0.88466  1
 Sr  Sr5  1  0.25000  0.88466  0.61534  1
 Sr  Sr6  1  0.88466  0.61534  0.25000  1
 Zn  Zn1  1  0.75000  0.75000  0.75000  1
 Zn  Zn2  1  0.25000  0.25000  0.25000  1
