CIF file written using JARVIS-Tools package.
data_NdCo9Si2
_symmetry_space_group_name_H-M  'I4_1/amd'
_cell_length_a       7.54044
_cell_length_b       7.54044
_cell_length_c       7.54044
_cell_angle_alpha    100.014
_cell_angle_beta     100.014
_cell_angle_gamma    130.709

_symmetry_Int_Tables_number  141
_chemical_formula_structural  NdCo9Si2
_chemical_formula_sum  Nd2Co8Si4
_cell_volume  295.388866122329
_cell_formula_units_Z  2
loop_
  _symmetry_equiv_pos_site_id
 _symmetry_equiv_pos_as_xyz
 1  'x, y, z'
loop_
 _atom_site_type_symbol
 _atom_site_label
 _atom_site_symmetry_multiplicity
 _atom_site_fract_x
 _atom_site_fract_y
 _atom_site_fract_z
 _atom_site_fract_occupancy
 Co  Co1  1  0.43450  0.10395  0.91830  1
 Co  Co2  1  0.18565  0.10395  0.66945  1
 Co  Co3  1  0.76620  0.93565  0.58170  1
 Co  Co4  1  0.76620  0.18450  0.83055  1
 Co  Co5  1  0.43450  0.51620  0.33055  1
 Co  Co6  1  0.75000  0.25000  0.50000  1
 Co  Co7  1  0.35395  0.18450  0.41830  1
 Co  Co8  1  0.06435  0.23380  0.41830  1
 Co  Co9  1  0.06435  0.64605  0.83055  1
 Co  Co10  1  0.48380  0.81435  0.91830  1
 Co  Co11  1  0.48380  0.56550  0.66945  1
 Co  Co12  1  0.81550  0.23380  0.16945  1
 Co  Co13  1  0.81550  0.64605  0.58170  1
 Co  Co14  1  0.89605  0.81435  0.33055  1
 Co  Co15  1  0.89605  0.56550  0.08170  1
 Co  Co16  1  0.35395  0.93565  0.16945  1
 Co  Co17  1  0.18565  0.51620  0.08170  1
 Co  Co18  1  0.50000  0.50000  0.00000  1
 Nd  Nd1  1  0.00000  0.00000  0.00000  1
 Nd  Nd2  1  0.25000  0.75000  0.50000  1
 Si  Si1  1  0.62500  0.37500  0.75000  1
 Si  Si2  1  0.12500  0.37500  0.75000  1
 Si  Si3  1  0.62500  0.87500  0.25000  1
 Si  Si4  1  0.62500  0.37500  0.25000  1
