CIF file written using JARVIS-Tools package.
data_PtSCl
_symmetry_space_group_name_H-M  'Pmmn'
_cell_length_a       3.47894
_cell_length_b       5.26627
_cell_length_c       6.85777
_cell_angle_alpha    90
_cell_angle_beta     90
_cell_angle_gamma    90

_symmetry_Int_Tables_number  59
_chemical_formula_structural  PtSCl
_chemical_formula_sum  Pt2S2Cl2
_cell_volume  125.64145523768342
_cell_formula_units_Z  2
loop_
  _symmetry_equiv_pos_site_id
 _symmetry_equiv_pos_as_xyz
 1  'x, y, z'
loop_
 _atom_site_type_symbol
 _atom_site_label
 _atom_site_symmetry_multiplicity
 _atom_site_fract_x
 _atom_site_fract_y
 _atom_site_fract_z
 _atom_site_fract_occupancy
 Cl  Cl1  1  0.00000  0.00000  0.12669  1
 Cl  Cl2  1  0.50000  0.50000  0.87331  1
 Pt  Pt1  1  0.50000  0.00000  0.37495  1
 Pt  Pt2  1  0.00000  0.50000  0.62505  1
 S  S1  1  0.00000  0.00000  0.60300  1
 S  S2  1  0.50000  0.50000  0.39700  1
