CIF file written using JARVIS-Tools package.
data_Cr2CuO4
_symmetry_space_group_name_H-M  'Fd-3m'
_cell_length_a       5.88884
_cell_length_b       5.88883
_cell_length_c       5.89287
_cell_angle_alpha    59.977
_cell_angle_beta     59.9768
_cell_angle_gamma    89.9214

_symmetry_Int_Tables_number  227
_chemical_formula_structural  Cr2CuO4
_chemical_formula_sum  Cr4Cu2O8
_cell_volume  144.49891678707868
_cell_formula_units_Z  2
loop_
  _symmetry_equiv_pos_site_id
 _symmetry_equiv_pos_as_xyz
 1  'x, y, z'
loop_
 _atom_site_type_symbol
 _atom_site_label
 _atom_site_symmetry_multiplicity
 _atom_site_fract_x
 _atom_site_fract_y
 _atom_site_fract_z
 _atom_site_fract_occupancy
 Cr  Cr1  1  0.62500  0.87500  0.75000  1
 Cr  Cr2  1  0.12500  0.37500  0.25000  1
 Cr  Cr3  1  0.62500  0.37500  0.25000  1
 Cr  Cr4  1  0.62500  0.37500  0.75000  1
 Cu  Cu1  1  0.00001  -0.00001  -0.00000  1
 Cu  Cu2  1  0.25001  0.74999  0.50000  1
 O  O1  1  0.38898  0.16585  0.22259  1
 O  O2  1  0.38844  0.61157  0.77741  1
 O  O3  1  0.86156  0.13843  0.72259  1
 O  O4  1  0.86102  0.58415  0.27741  1
 O  O5  1  0.83415  0.61102  0.77741  1
 O  O6  1  0.38843  0.61156  0.22259  1
 O  O7  1  0.86157  0.13844  0.27741  1
 O  O8  1  0.41585  0.13898  0.72259  1
