CIF file written using JARVIS-Tools package.
data_ZnH10C7O4
_symmetry_space_group_name_H-M  'P1'
_cell_length_a       4.1947
_cell_length_b       4.44442
_cell_length_c       10.6975
_cell_angle_alpha    94.7059
_cell_angle_beta     91.4668
_cell_angle_gamma    109.734

_symmetry_Int_Tables_number  1
_chemical_formula_structural  ZnH10C7O4
_chemical_formula_sum  ZnH0C7O4
_cell_volume  186.78536516138556
_cell_formula_units_Z  1
loop_
  _symmetry_equiv_pos_site_id
 _symmetry_equiv_pos_as_xyz
 1  'x, y, z'
loop_
 _atom_site_type_symbol
 _atom_site_label
 _atom_site_symmetry_multiplicity
 _atom_site_fract_x
 _atom_site_fract_y
 _atom_site_fract_z
 _atom_site_fract_occupancy
 C  C1  1  0.53818  0.39541  0.02698  1
 C  C2  1  0.63298  0.34650  0.79337  1
 C  C3  1  0.73481  0.54211  0.68073  1
 C  C4  1  0.82098  0.36194  0.56563  1
 C  C5  1  0.95645  0.59063  0.46520  1
 C  C6  1  0.08404  0.45822  0.34971  1
 C  C7  1  0.57318  0.55513  0.90621  1
 H  H1  1  0.16374  0.80591  0.50541  1
 H  H2  1  0.01114  0.25575  0.59358  1
 H  H3  1  0.34128  0.61148  0.88756  1
 H  H4  1  0.53263  0.63557  0.65411  1
 H  H5  1  0.95810  0.75639  0.71072  1
 H  H6  1  0.83542  0.25322  0.81939  1
 H  H7  1  0.40355  0.13517  0.76922  1
 H  H8  1  0.59698  0.16043  0.52668  1
 H  H9  1  0.78545  0.78332  0.92056  1
 H  H10  1  0.76066  0.68232  0.43062  1
 O  O1  1  0.28844  0.65137  0.28237  1
 O  O2  1  0.29141  0.12618  0.02889  1
 O  O3  1  0.98256  0.15377  0.32529  1
 O  O4  1  0.74510  0.51845  0.12014  1
 Zn  Zn1  1  0.12663  0.93553  0.18266  1
