CIF file written using JARVIS-Tools package.
data_La3AlCdS7
_symmetry_space_group_name_H-M  'P6_3'
_cell_length_a       10.2405
_cell_length_b       10.2405
_cell_length_c       6.17302
_cell_angle_alpha    90
_cell_angle_beta     90
_cell_angle_gamma    120

_symmetry_Int_Tables_number  173
_chemical_formula_structural  La3AlCdS7
_chemical_formula_sum  La6Al2Cd2S4
_cell_volume  560.6234523545305
_cell_formula_units_Z  2
loop_
  _symmetry_equiv_pos_site_id
 _symmetry_equiv_pos_as_xyz
 1  'x, y, z'
loop_
 _atom_site_type_symbol
 _atom_site_label
 _atom_site_symmetry_multiplicity
 _atom_site_fract_x
 _atom_site_fract_y
 _atom_site_fract_z
 _atom_site_fract_occupancy
 Al  Al1  1  0.33333  0.66667  0.84887  1
 Al  Al2  1  0.66667  0.33333  0.34887  1
 Cd  Cd1  1  0.00000  0.00000  0.49633  1
 Cd  Cd2  1  0.00000  0.00000  -0.00367  1
 La  La1  1  0.23616  0.37679  0.26963  1
 La  La2  1  0.62321  0.85937  0.26963  1
 La  La3  1  0.14063  0.76384  0.26963  1
 La  La4  1  0.76384  0.62321  0.76963  1
 La  La5  1  0.37679  0.14063  0.76963  1
 La  La6  1  0.85937  0.23616  0.76963  1
 S  S1  1  0.15619  0.25271  0.72930  1
 S  S2  1  0.33333  0.66667  0.48599  1
 S  S3  1  0.09652  0.84381  0.72930  1
 S  S4  1  0.84381  0.74729  0.22930  1
 S  S5  1  0.25271  0.09652  0.22930  1
 S  S6  1  0.74729  0.90348  0.72930  1
 S  S7  1  0.52082  0.41946  0.49669  1
 S  S8  1  0.47918  0.58054  0.99669  1
 S  S9  1  0.41946  0.89864  0.99669  1
 S  S10  1  0.89864  0.47918  0.49669  1
 S  S11  1  0.90348  0.15619  0.22930  1
 S  S12  1  0.58054  0.10136  0.49669  1
 S  S13  1  0.10136  0.52082  0.99669  1
 S  S14  1  0.66667  0.33333  0.98599  1
