CIF file written using JARVIS-Tools package.
data_TiV3O8
_symmetry_space_group_name_H-M  'Cm'
_cell_length_a       3.72387
_cell_length_b       12.7058
_cell_length_c       6.31814
_cell_angle_alpha    77.7948
_cell_angle_beta     107.141
_cell_angle_gamma    98.4276

_symmetry_Int_Tables_number  8
_chemical_formula_structural  TiV3O8
_chemical_formula_sum  Ti2V6O6
_cell_volume  278.0687162506737
_cell_formula_units_Z  2
loop_
  _symmetry_equiv_pos_site_id
 _symmetry_equiv_pos_as_xyz
 1  'x, y, z'
loop_
 _atom_site_type_symbol
 _atom_site_label
 _atom_site_symmetry_multiplicity
 _atom_site_fract_x
 _atom_site_fract_y
 _atom_site_fract_z
 _atom_site_fract_occupancy
 O  O1  1  0.63426  0.49879  0.76970  1
 O  O2  1  0.13552  0.84972  0.42153  1
 O  O3  1  0.13567  0.34972  0.92151  1
 O  O4  1  0.23719  0.67432  0.80021  1
 O  O5  1  0.86776  0.64945  0.08622  1
 O  O6  1  0.36165  0.99776  0.72545  1
 O  O7  1  0.36164  0.49776  0.22545  1
 O  O8  1  0.23732  0.17432  0.30019  1
 O  O9  1  0.44295  0.31748  0.56822  1
 O  O10  1  0.55694  0.68395  0.43019  1
 O  O11  1  0.55715  0.18395  0.93017  1
 O  O12  1  0.86790  0.14945  0.58619  1
 O  O13  1  0.63419  -0.00121  0.26970  1
 O  O14  1  0.76445  0.82821  0.70081  1
 O  O15  1  0.76460  0.32821  0.20078  1
 O  O16  1  0.44276  0.81748  0.06824  1
 Ti  Ti1  1  0.69630  0.14158  0.25090  1
 Ti  Ti2  1  0.69617  0.64158  0.75092  1
 V  V1  1  0.30360  0.85931  0.74795  1
 V  V2  1  0.59984  0.85229  0.34767  1
 V  V3  1  0.39926  0.14713  0.65121  1
 V  V4  1  0.30374  0.35931  0.24793  1
 V  V5  1  0.60003  0.35229  0.84764  1
 V  V6  1  0.39910  0.64713  0.15122  1
