CIF file written using JARVIS-Tools package.
data_Mg4FeO5
_symmetry_space_group_name_H-M  'R-3m'
_cell_length_a       2.98201
_cell_length_b       12.4432
_cell_length_c       5.16525
_cell_angle_alpha    97.9621
_cell_angle_beta     89.9999
_cell_angle_gamma    90

_symmetry_Int_Tables_number  166
_chemical_formula_structural  Mg4FeO5
_chemical_formula_sum  Mg8Fe2O0
_cell_volume  189.8130686672596
_cell_formula_units_Z  2
loop_
  _symmetry_equiv_pos_site_id
 _symmetry_equiv_pos_as_xyz
 1  'x, y, z'
loop_
 _atom_site_type_symbol
 _atom_site_label
 _atom_site_symmetry_multiplicity
 _atom_site_fract_x
 _atom_site_fract_y
 _atom_site_fract_z
 _atom_site_fract_occupancy
 Fe  Fe1  1  0.49999  0.00000  0.49997  1
 Fe  Fe2  1  0.00000  -0.00000  0.00001  1
 Mg  Mg1  1  0.00000  0.59900  0.19967  1
 Mg  Mg2  1  0.50000  0.59900  0.69966  1
 Mg  Mg3  1  0.00000  0.40100  0.80034  1
 Mg  Mg4  1  -0.00000  0.20289  0.40101  1
 Mg  Mg5  1  0.50000  0.79711  0.09899  1
 Mg  Mg6  1  0.00000  0.79711  0.59899  1
 Mg  Mg7  1  0.50000  0.20289  0.90100  1
 Mg  Mg8  1  0.50000  0.40100  0.30035  1
 O  O1  1  0.00000  0.69795  0.89929  1
 O  O2  1  0.50000  0.30205  0.60072  1
 O  O3  1  0.00000  0.50000  0.50001  1
 O  O4  1  0.50000  0.50000  0.00001  1
 O  O5  1  0.50000  0.89302  0.79761  1
 O  O6  1  -0.00001  0.89301  0.29761  1
 O  O7  1  0.50000  0.10699  0.20238  1
 O  O8  1  -0.00001  0.10698  0.70238  1
 O  O9  1  0.50000  0.69795  0.39928  1
 O  O10  1  0.00000  0.30205  0.10072  1
