CIF file written using JARVIS-Tools package.
data_HC3SO
_symmetry_space_group_name_H-M  'P1'
_cell_length_a       3.68586
_cell_length_b       8.41549
_cell_length_c       10.1561
_cell_angle_alpha    96.3597
_cell_angle_beta     97.9481
_cell_angle_gamma    96.1151

_symmetry_Int_Tables_number  1
_chemical_formula_structural  HC3SO
_chemical_formula_sum  H4C2S4O4
_cell_volume  307.6932989471585
_cell_formula_units_Z  4
loop_
  _symmetry_equiv_pos_site_id
 _symmetry_equiv_pos_as_xyz
 1  'x, y, z'
loop_
 _atom_site_type_symbol
 _atom_site_label
 _atom_site_symmetry_multiplicity
 _atom_site_fract_x
 _atom_site_fract_y
 _atom_site_fract_z
 _atom_site_fract_occupancy
 C  C1  1  0.09337  0.11219  0.56849  1
 C  C2  1  0.12754  0.03025  0.44568  1
 C  C3  1  0.44614  0.50565  0.15053  1
 C  C4  1  0.94613  0.00566  0.65055  1
 C  C5  1  0.73822  0.70242  0.63888  1
 C  C6  1  0.23826  0.20242  0.13890  1
 C  C7  1  0.15711  0.21248  0.28011  1
 C  C8  1  0.65708  0.71246  0.78009  1
 C  C9  1  0.36866  0.34585  0.08935  1
 C  C10  1  0.86864  0.84586  0.58935  1
 C  C11  1  0.62750  0.53021  0.94565  1
 C  C12  1  0.59335  0.61217  0.06845  1
 H  H1  1  0.40219  0.54121  0.25287  1
 H  H2  1  0.17625  0.24074  0.59672  1
 H  H3  1  0.67621  0.74072  0.09667  1
 H  H4  1  0.90216  0.04120  0.75289  1
 O  O1  1  0.49154  0.81149  0.83411  1
 O  O2  1  0.77452  0.58165  0.83922  1
 O  O3  1  0.27462  0.08170  0.33927  1
 O  O4  1  0.99151  0.31150  0.33411  1
 S  S1  1  0.47500  0.32649  0.92649  1
 S  S2  1  0.97502  0.82653  0.42649  1
 S  S3  1  0.14352  0.02483  0.04506  1
 S  S4  1  0.64347  0.52485  0.54502  1
