CIF file written using JARVIS-Tools package.
data_RbS3Cl
_symmetry_space_group_name_H-M  'Cm'
_cell_length_a       5.50707
_cell_length_b       6.172
_cell_length_c       5.50707
_cell_angle_alpha    77.2914
_cell_angle_beta     57.1677
_cell_angle_gamma    77.2913

_symmetry_Int_Tables_number  8
_chemical_formula_structural  RbS3Cl
_chemical_formula_sum  RbS3Cl
_cell_volume  152.26718429867293
_cell_formula_units_Z  1
loop_
  _symmetry_equiv_pos_site_id
 _symmetry_equiv_pos_as_xyz
 1  'x, y, z'
loop_
 _atom_site_type_symbol
 _atom_site_label
 _atom_site_symmetry_multiplicity
 _atom_site_fract_x
 _atom_site_fract_y
 _atom_site_fract_z
 _atom_site_fract_occupancy
 Cl  Cl1  1  0.54063  -0.19341  0.54062  1
 Rb  Rb1  1  0.23481  0.75275  0.23481  1
 S  S1  1  -0.07361  0.26584  0.53184  1
 S  S2  1  0.89133  0.03399  0.89133  1
 S  S3  1  0.53184  0.26584  -0.07361  1
