CIF file written using JARVIS-Tools package.
data_LiCo4O8
_symmetry_space_group_name_H-M  'C2/m'
_cell_length_a       5.57433
_cell_length_b       5.57431
_cell_length_c       9.75423
_cell_angle_alpha    91.019
_cell_angle_beta     73.9323
_cell_angle_gamma    61.0227

_symmetry_Int_Tables_number  12
_chemical_formula_structural  LiCo4O8
_chemical_formula_sum  Li2Co8O6
_cell_volume  250.5990202105991
_cell_formula_units_Z  2
loop_
  _symmetry_equiv_pos_site_id
 _symmetry_equiv_pos_as_xyz
 1  'x, y, z'
loop_
 _atom_site_type_symbol
 _atom_site_label
 _atom_site_symmetry_multiplicity
 _atom_site_fract_x
 _atom_site_fract_y
 _atom_site_fract_z
 _atom_site_fract_occupancy
 Co  Co1  1  0.50000  -0.00000  0.50000  1
 Co  Co2  1  0.49998  0.24999  0.74999  1
 Co  Co3  1  0.50000  0.50000  0.50000  1
 Co  Co4  1  0.00000  -0.00000  0.50000  1
 Co  Co5  1  -0.00000  0.50000  0.00000  1
 Co  Co6  1  0.50000  -0.00000  0.00000  1
 Co  Co7  1  0.50002  0.75001  0.25001  1
 Co  Co8  1  0.50000  0.50000  0.00000  1
 Li  Li1  1  0.99967  0.24950  0.24983  1
 Li  Li2  1  0.00033  0.75050  0.75017  1
 O  O1  1  0.73604  0.85402  0.11801  1
 O  O2  1  0.73602  0.35401  0.61802  1
 O  O3  1  0.73817  0.40768  0.11908  1
 O  O4  1  0.26396  0.14598  0.88199  1
 O  O5  1  0.26181  0.09232  0.38091  1
 O  O6  1  0.26183  0.59232  0.88092  1
 O  O7  1  0.26398  0.64599  0.38198  1
 O  O8  1  0.26184  0.36751  0.10570  1
 O  O9  1  0.71139  0.14276  0.88092  1
 O  O10  1  0.28861  0.85724  0.11908  1
 O  O11  1  0.28859  0.35727  0.61908  1
 O  O12  1  0.73814  0.13246  0.39430  1
 O  O13  1  0.26186  0.86754  0.60570  1
 O  O14  1  0.71141  0.64273  0.38092  1
 O  O15  1  0.73816  0.63249  0.89430  1
 O  O16  1  0.73819  0.90768  0.61909  1
