CIF file written using JARVIS-Tools package.
data_Zr11Os4
_symmetry_space_group_name_H-M  'Fm-3m'
_cell_length_a       9.52914
_cell_length_b       9.52914
_cell_length_c       9.52914
_cell_angle_alpha    60
_cell_angle_beta     60
_cell_angle_gamma    60

_symmetry_Int_Tables_number  225
_chemical_formula_structural  Zr11Os4
_chemical_formula_sum  Zr22Os8
_cell_volume  611.851132122775
_cell_formula_units_Z  2
loop_
  _symmetry_equiv_pos_site_id
 _symmetry_equiv_pos_as_xyz
 1  'x, y, z'
loop_
 _atom_site_type_symbol
 _atom_site_label
 _atom_site_symmetry_multiplicity
 _atom_site_fract_x
 _atom_site_fract_y
 _atom_site_fract_z
 _atom_site_fract_occupancy
 Os  Os1  1  0.50000  0.00000  -0.00000  1
 Os  Os2  1  -0.00000  0.50000  0.50000  1
 Os  Os3  1  0.50000  0.00000  0.50000  1
 Os  Os4  1  0.00000  0.00000  0.50000  1
 Os  Os5  1  0.50000  0.50000  0.50000  1
 Os  Os6  1  0.00000  0.00000  0.00000  1
 Os  Os7  1  -0.00000  0.50000  -0.00000  1
 Os  Os8  1  0.50000  0.50000  -0.00000  1
 Zr  Zr1  1  0.20041  0.79959  0.79959  1
 Zr  Zr2  1  0.14943  0.61686  0.61686  1
 Zr  Zr3  1  0.61686  0.14943  0.61686  1
 Zr  Zr4  1  0.61686  0.61686  0.14943  1
 Zr  Zr5  1  0.79959  0.20041  0.20041  1
 Zr  Zr6  1  0.79959  0.20041  0.79959  1
 Zr  Zr7  1  0.20041  0.20041  0.79959  1
 Zr  Zr8  1  0.79959  0.79959  0.20041  1
 Zr  Zr9  1  0.61686  0.61686  0.61686  1
 Zr  Zr10  1  0.83716  0.83716  0.48851  1
 Zr  Zr11  1  0.38314  0.85057  0.38314  1
 Zr  Zr12  1  0.85057  0.38314  0.38314  1
 Zr  Zr13  1  0.38314  0.38314  0.38314  1
 Zr  Zr14  1  0.83716  0.48851  0.83716  1
 Zr  Zr15  1  0.48851  0.83716  0.83716  1
 Zr  Zr16  1  0.83716  0.83716  0.83716  1
 Zr  Zr17  1  0.16284  0.16284  0.51149  1
 Zr  Zr18  1  0.16284  0.51149  0.16284  1
 Zr  Zr19  1  0.51149  0.16284  0.16284  1
 Zr  Zr20  1  0.16284  0.16284  0.16284  1
 Zr  Zr21  1  0.20041  0.79959  0.20041  1
 Zr  Zr22  1  0.38314  0.38314  0.85057  1
