CIF file written using JARVIS-Tools package.
data_Ti6Al16Ru7
_symmetry_space_group_name_H-M  'Fm-3m'
_cell_length_a       8.57562
_cell_length_b       8.57562
_cell_length_c       8.57562
_cell_angle_alpha    60
_cell_angle_beta     60
_cell_angle_gamma    60

_symmetry_Int_Tables_number  225
_chemical_formula_structural  Ti6Al16Ru7
_chemical_formula_sum  Ti6Al6Ru7
_cell_volume  445.9450096592861
_cell_formula_units_Z  1
loop_
  _symmetry_equiv_pos_site_id
 _symmetry_equiv_pos_as_xyz
 1  'x, y, z'
loop_
 _atom_site_type_symbol
 _atom_site_label
 _atom_site_symmetry_multiplicity
 _atom_site_fract_x
 _atom_site_fract_y
 _atom_site_fract_z
 _atom_site_fract_occupancy
 Al  Al1  1  0.63822  0.12059  0.12059  1
 Al  Al2  1  0.36178  0.87941  0.87941  1
 Al  Al3  1  0.87941  0.87941  0.87941  1
 Al  Al4  1  0.12059  0.12059  0.63822  1
 Al  Al5  1  0.12059  0.63822  0.12059  1
 Al  Al6  1  0.12059  0.12059  0.12059  1
 Al  Al7  1  0.65519  0.65519  0.03442  1
 Al  Al8  1  0.65519  0.03442  0.65519  1
 Al  Al9  1  0.03442  0.65519  0.65519  1
 Al  Al10  1  0.87941  0.36178  0.87941  1
 Al  Al11  1  0.65519  0.65519  0.65519  1
 Al  Al12  1  0.34481  0.96558  0.34481  1
 Al  Al13  1  0.96558  0.34481  0.34481  1
 Al  Al14  1  0.34481  0.34481  0.34481  1
 Al  Al15  1  0.34481  0.34481  0.96558  1
 Al  Al16  1  0.87941  0.87941  0.36178  1
 Ru  Ru1  1  0.00000  0.50000  0.00000  1
 Ru  Ru2  1  0.00000  0.00000  0.00000  1
 Ru  Ru3  1  0.00000  0.00000  0.50000  1
 Ru  Ru4  1  0.50000  0.00000  0.50000  1
 Ru  Ru5  1  0.00000  0.50000  0.50000  1
 Ru  Ru6  1  0.50000  0.00000  0.00000  1
 Ru  Ru7  1  0.50000  0.50000  0.00000  1
 Ti  Ti1  1  0.28720  0.71280  0.71280  1
 Ti  Ti2  1  0.71280  0.28720  0.71280  1
 Ti  Ti3  1  0.28720  0.28720  0.71280  1
 Ti  Ti4  1  0.71280  0.28720  0.28720  1
 Ti  Ti5  1  0.28720  0.71280  0.28720  1
 Ti  Ti6  1  0.71280  0.71280  0.28720  1
