CIF file written using JARVIS-Tools package.
data_H7C11S2N
_symmetry_space_group_name_H-M  'P1'
_cell_length_a       3.75656
_cell_length_b       11.2629
_cell_length_c       11.0273
_cell_angle_alpha    112.25
_cell_angle_beta     93.5621
_cell_angle_gamma    89.2352

_symmetry_Int_Tables_number  1
_chemical_formula_structural  H7C11S2N
_chemical_formula_sum  H4C22S4N2
_cell_volume  430.962102029
_cell_formula_units_Z  2
loop_
  _symmetry_equiv_pos_site_id
 _symmetry_equiv_pos_as_xyz
 1  'x, y, z'
loop_
 _atom_site_type_symbol
 _atom_site_label
 _atom_site_symmetry_multiplicity
 _atom_site_fract_x
 _atom_site_fract_y
 _atom_site_fract_z
 _atom_site_fract_occupancy
 C  C1  1  0.87034  0.64728  0.98600  1
 C  C2  1  0.88371  0.77802  0.05488  1
 C  C3  1  0.88371  0.77802  0.55488  1
 C  C4  1  0.13738  0.05455  0.86137  1
 C  C5  1  0.01489  0.56167  0.54150  1
 C  C6  1  0.01489  0.56167  0.04150  1
 C  C7  1  0.04225  0.83091  0.68351  1
 C  C8  1  0.13738  0.05455  0.36137  1
 C  C9  1  0.16783  0.61555  0.67075  1
 C  C10  1  0.05503  0.18534  0.87624  1
 C  C11  1  0.18385  0.74751  0.74158  1
 C  C12  1  0.18385  0.74751  0.24158  1
 C  C13  1  0.05503  0.18534  0.37624  1
 C  C14  1  0.00260  0.42451  0.46411  1
 C  C15  1  0.00260  0.42451  0.96411  1
 C  C16  1  0.85065  0.36450  0.33707  1
 C  C17  1  0.85065  0.36450  0.83707  1
 C  C18  1  0.87860  0.23068  0.28788  1
 C  C19  1  0.87860  0.23068  0.78788  1
 C  C20  1  0.16783  0.61555  0.17075  1
 C  C21  1  0.04225  0.83091  0.18351  1
 C  C22  1  0.87034  0.64728  0.48600  1
 H  H1  1  0.77086  0.84177  0.00919  1
 H  H2  1  0.95548  0.00370  0.17291  1
 H  H3  1  0.74678  0.61110  0.38679  1
 H  H4  1  0.30520  0.78609  0.84072  1
 H  H5  1  0.30520  0.78609  0.34072  1
 H  H6  1  0.28006  0.55252  0.21768  1
 H  H7  1  0.95548  0.00370  0.67291  1
 H  H8  1  0.28006  0.55252  0.71768  1
 H  H9  1  0.71850  0.41522  0.28078  1
 H  H10  1  0.71850  0.41522  0.78078  1
 H  H11  1  0.76764  0.17110  0.19030  1
 H  H12  1  0.76764  0.17110  0.69030  1
 H  H13  1  0.77086  0.84177  0.50919  1
 H  H14  1  0.74678  0.61110  0.88679  1
 N  N1  1  0.04189  0.96552  0.23998  1
 N  N2  1  0.04189  0.96552  0.73998  1
 S  S1  1  0.18141  0.31150  0.02202  1
 S  S2  1  0.18141  0.31150  0.52202  1
 S  S3  1  0.33642  0.02279  0.98623  1
 S  S4  1  0.33642  0.02279  0.48623  1
