CIF file written using JARVIS-Tools package.
data_Ce6Mg23Sn
_symmetry_space_group_name_H-M  'Fm-3m'
_cell_length_a       10.2296
_cell_length_b       10.2296
_cell_length_c       10.2295
_cell_angle_alpha    60
_cell_angle_beta     60
_cell_angle_gamma    60

_symmetry_Int_Tables_number  225
_chemical_formula_structural  Ce6Mg23Sn
_chemical_formula_sum  Ce6Mg23Sn
_cell_volume  756.9287356129161
_cell_formula_units_Z  1
loop_
  _symmetry_equiv_pos_site_id
 _symmetry_equiv_pos_as_xyz
 1  'x, y, z'
loop_
 _atom_site_type_symbol
 _atom_site_label
 _atom_site_symmetry_multiplicity
 _atom_site_fract_x
 _atom_site_fract_y
 _atom_site_fract_z
 _atom_site_fract_occupancy
 Ce  Ce1  1  0.78129  0.78129  0.21871  1
 Ce  Ce2  1  0.21871  0.78129  0.21871  1
 Ce  Ce3  1  0.78129  0.21871  0.21871  1
 Ce  Ce4  1  0.21871  0.21871  0.78129  1
 Ce  Ce5  1  0.78129  0.21871  0.78129  1
 Ce  Ce6  1  0.21871  0.78129  0.78129  1
 Mg  Mg1  1  0.50000  0.50000  0.50000  1
 Mg  Mg2  1  0.16648  0.16648  0.16648  1
 Mg  Mg3  1  0.50056  0.16648  0.16648  1
 Mg  Mg4  1  0.16648  0.50056  0.16648  1
 Mg  Mg5  1  0.49944  0.83352  0.83352  1
 Mg  Mg6  1  0.83352  0.83352  0.83352  1
 Mg  Mg7  1  0.62306  0.13082  0.62306  1
 Mg  Mg8  1  0.83352  0.49944  0.83352  1
 Mg  Mg9  1  0.83352  0.83352  0.49944  1
 Mg  Mg10  1  0.16648  0.16648  0.50056  1
 Mg  Mg11  1  0.62306  0.62306  0.13082  1
 Mg  Mg12  1  0.50000  0.00000  0.00000  1
 Mg  Mg13  1  0.50000  0.00000  0.50000  1
 Mg  Mg14  1  0.13082  0.62306  0.62306  1
 Mg  Mg15  1  0.00000  0.50000  0.00000  1
 Mg  Mg16  1  0.37694  0.37694  0.86918  1
 Mg  Mg17  1  0.00000  0.50000  0.50000  1
 Mg  Mg18  1  0.50000  0.50000  0.00000  1
 Mg  Mg19  1  0.00000  0.00000  0.50000  1
 Mg  Mg20  1  0.37694  0.37694  0.37694  1
 Mg  Mg21  1  0.86918  0.37694  0.37694  1
 Mg  Mg22  1  0.37694  0.86918  0.37694  1
 Mg  Mg23  1  0.62306  0.62306  0.62306  1
 Sn  Sn1  1  0.00000  0.00000  0.00000  1
