CIF file written using JARVIS-Tools package.
data_VCr2O4
_symmetry_space_group_name_H-M  'Fd-3m'
_cell_length_a       5.96393
_cell_length_b       5.96098
_cell_length_c       5.96352
_cell_angle_alpha    60.0167
_cell_angle_beta     120.04
_cell_angle_gamma    119.978

_symmetry_Int_Tables_number  227
_chemical_formula_structural  VCr2O4
_chemical_formula_sum  V2Cr4O8
_cell_volume  149.910282170669
_cell_formula_units_Z  2
loop_
  _symmetry_equiv_pos_site_id
 _symmetry_equiv_pos_as_xyz
 1  'x, y, z'
loop_
 _atom_site_type_symbol
 _atom_site_label
 _atom_site_symmetry_multiplicity
 _atom_site_fract_x
 _atom_site_fract_y
 _atom_site_fract_z
 _atom_site_fract_occupancy
 Cr  Cr1  1  0.50000  0.00000  0.50000  1
 Cr  Cr2  1  0.00000  0.00000  0.00000  1
 Cr  Cr3  1  0.50000  0.50000  0.00000  1
 Cr  Cr4  1  0.50000  0.00000  0.00000  1
 O  O1  1  0.25893  0.24060  0.77773  1
 O  O2  1  0.74059  0.22223  0.75942  1
 O  O3  1  0.25941  0.24107  0.24059  1
 O  O4  1  0.72224  0.24060  0.24105  1
 O  O5  1  0.27776  0.75940  0.75895  1
 O  O6  1  0.74059  0.75893  0.75941  1
 O  O7  1  0.25941  0.77777  0.24057  1
 O  O8  1  0.74107  0.75940  0.22227  1
 V  V1  1  0.12499  0.37505  0.37494  1
 V  V2  1  0.87501  0.62495  0.62506  1
