CIF file written using JARVIS-Tools package.
data_Mn3O4F2
_symmetry_space_group_name_H-M  'Cmm2'
_cell_length_a       4.55746
_cell_length_b       8.90289
_cell_length_c       4.55738
_cell_angle_alpha    89.9916
_cell_angle_beta     89.8392
_cell_angle_gamma    89.9928

_symmetry_Int_Tables_number  35
_chemical_formula_structural  Mn3O4F2
_chemical_formula_sum  Mn6O8F4
_cell_volume  184.91354025997046
_cell_formula_units_Z  2
loop_
  _symmetry_equiv_pos_site_id
 _symmetry_equiv_pos_as_xyz
 1  'x, y, z'
loop_
 _atom_site_type_symbol
 _atom_site_label
 _atom_site_symmetry_multiplicity
 _atom_site_fract_x
 _atom_site_fract_y
 _atom_site_fract_z
 _atom_site_fract_occupancy
 F  F1  1  0.18527  0.83804  0.81472  1
 F  F2  1  0.81474  0.83804  0.18529  1
 F  F3  1  0.68497  0.32919  0.68499  1
 F  F4  1  0.31502  0.32921  0.31500  1
 Mn  Mn1  1  0.00000  0.01981  0.00000  1
 Mn  Mn2  1  -0.00001  0.65019  -0.00001  1
 Mn  Mn3  1  -0.00000  0.32990  -0.00000  1
 Mn  Mn4  1  0.50000  0.51485  0.50000  1
 Mn  Mn5  1  0.50000  0.14829  0.50000  1
 Mn  Mn6  1  0.50001  0.83666  0.50001  1
 O  O1  1  0.19603  0.49541  0.80395  1
 O  O2  1  0.19987  0.16846  0.80010  1
 O  O3  1  0.69589  0.99982  0.69591  1
 O  O4  1  0.30413  -0.00016  0.30411  1
 O  O5  1  0.80397  0.49541  0.19605  1
 O  O6  1  0.80012  0.16846  0.19989  1
 O  O7  1  0.30412  0.66921  0.30410  1
 O  O8  1  0.69587  0.66920  0.69589  1
