CIF file written using JARVIS-Tools package.
data_Yb2Ga9Co3
_symmetry_space_group_name_H-M  'Cmcm'
_cell_length_a       7.27633
_cell_length_b       7.27633
_cell_length_c       9.53078
_cell_angle_alpha    90
_cell_angle_beta     90
_cell_angle_gamma    119.626

_symmetry_Int_Tables_number  63
_chemical_formula_structural  Yb2Ga9Co3
_chemical_formula_sum  Yb4Ga8Co6
_cell_volume  438.64219701951833
_cell_formula_units_Z  2
loop_
  _symmetry_equiv_pos_site_id
 _symmetry_equiv_pos_as_xyz
 1  'x, y, z'
loop_
 _atom_site_type_symbol
 _atom_site_label
 _atom_site_symmetry_multiplicity
 _atom_site_fract_x
 _atom_site_fract_y
 _atom_site_fract_z
 _atom_site_fract_occupancy
 Co  Co1  1  0.67171  0.32829  0.50000  1
 Co  Co2  1  0.32829  0.67171  0.00000  1
 Co  Co3  1  0.00000  0.00000  0.50000  1
 Co  Co4  1  0.00000  0.00000  0.00000  1
 Co  Co5  1  0.67171  0.32829  0.00000  1
 Co  Co6  1  0.32829  0.67171  0.50000  1
 Ga  Ga1  1  0.66508  0.66508  0.93896  1
 Ga  Ga2  1  0.33413  0.00216  0.93138  1
 Ga  Ga3  1  0.99784  0.66587  0.06862  1
 Ga  Ga4  1  0.33413  0.00216  0.56862  1
 Ga  Ga5  1  0.99784  0.66587  0.43138  1
 Ga  Ga6  1  0.66587  0.99784  0.06862  1
 Ga  Ga7  1  0.00216  0.33413  0.93138  1
 Ga  Ga8  1  0.66587  0.99784  0.43138  1
 Ga  Ga9  1  0.00216  0.33413  0.56862  1
 Ga  Ga10  1  0.66508  0.66508  0.56104  1
 Ga  Ga11  1  0.33492  0.33492  0.43896  1
 Ga  Ga12  1  0.11826  0.11826  0.75000  1
 Ga  Ga13  1  0.88174  0.88174  0.25000  1
 Ga  Ga14  1  0.44571  0.66519  0.25000  1
 Ga  Ga15  1  0.33481  0.55429  0.75000  1
 Ga  Ga16  1  0.55429  0.33481  0.75000  1
 Ga  Ga17  1  0.66519  0.44571  0.25000  1
 Ga  Ga18  1  0.33492  0.33492  0.06104  1
 Yb  Yb1  1  0.00110  0.33104  0.25000  1
 Yb  Yb2  1  0.66896  0.99890  0.75000  1
 Yb  Yb3  1  0.99890  0.66896  0.75000  1
 Yb  Yb4  1  0.33104  0.00110  0.25000  1
