CIF file written using JARVIS-Tools package.
data_H7C11SNO
_symmetry_space_group_name_H-M  'P1'
_cell_length_a       3.82833
_cell_length_b       10.3188
_cell_length_c       11.0758
_cell_angle_alpha    69.5171
_cell_angle_beta     85.3799
_cell_angle_gamma    85.3938

_symmetry_Int_Tables_number  1
_chemical_formula_structural  H7C11SNO
_chemical_formula_sum  H4C22S2N2O2
_cell_volume  407.90193092759534
_cell_formula_units_Z  2
loop_
  _symmetry_equiv_pos_site_id
 _symmetry_equiv_pos_as_xyz
 1  'x, y, z'
loop_
 _atom_site_type_symbol
 _atom_site_label
 _atom_site_symmetry_multiplicity
 _atom_site_fract_x
 _atom_site_fract_y
 _atom_site_fract_z
 _atom_site_fract_occupancy
 C  C1  1  0.99807  0.38861  0.49574  1
 C  C2  1  0.03961  0.32857  0.62838  1
 C  C3  1  0.04018  0.82868  0.62834  1
 C  C4  1  0.96212  0.35814  0.85221  1
 C  C5  1  0.82513  0.01992  0.44182  1
 C  C6  1  0.82510  0.51988  0.44182  1
 C  C7  1  0.91409  0.89958  0.71149  1
 C  C8  1  0.96202  0.85813  0.85222  1
 C  C9  1  0.68344  0.08598  0.52840  1
 C  C10  1  0.79244  0.59365  0.30419  1
 C  C11  1  0.73031  0.02831  0.65876  1
 C  C12  1  0.73098  0.52845  0.65871  1
 C  C13  1  0.79253  0.09371  0.30420  1
 C  C14  1  0.84264  0.18903  0.06263  1
 C  C15  1  0.84265  0.68899  0.06262  1
 C  C16  1  0.61118  0.22036  0.25032  1
 C  C17  1  0.61097  0.72028  0.25031  1
 C  C18  1  0.63645  0.27379  0.11520  1
 C  C19  1  0.63632  0.77372  0.11519  1
 C  C20  1  0.68411  0.58611  0.52835  1
 C  C21  1  0.91417  0.39960  0.71149  1
 C  C22  1  0.99870  0.88876  0.49571  1
 H  H1  1  0.17853  0.22753  0.66605  1
 H  H2  1  0.92982  0.14450  0.89126  1
 H  H3  1  0.10338  0.83284  0.43232  1
 H  H4  1  0.62447  0.08211  0.72357  1
 H  H5  1  0.62569  0.58238  0.72348  1
 H  H6  1  0.54380  0.68648  0.49228  1
 H  H7  1  0.93009  0.64447  0.89126  1
 H  H8  1  0.54248  0.18622  0.49237  1
 H  H9  1  0.50732  0.37056  0.05736  1
 H  H10  1  0.50709  0.87047  0.05735  1
 H  H11  1  0.45852  0.27441  0.30675  1
 H  H12  1  0.45807  0.77427  0.30673  1
 H  H13  1  0.17964  0.72776  0.66598  1
 H  H14  1  0.10210  0.33255  0.43240  1
 N  N1  1  0.92939  0.22157  0.93004  1
 N  N2  1  0.92948  0.72155  0.93004  1
 O  O1  1  0.00341  0.45019  0.89819  1
 O  O2  1  0.00309  0.95020  0.89819  1
 S  S1  1  0.99905  0.53995  0.18180  1
 S  S2  1  0.99898  0.03997  0.18181  1
