CIF file written using JARVIS-Tools package.
data_VO2
_symmetry_space_group_name_H-M  'C2/c'
_cell_length_a       5.56288
_cell_length_b       6.09468
_cell_length_c       6.09465
_cell_angle_alpha    96.3451
_cell_angle_beta     90.7692
_cell_angle_gamma    89.2307

_symmetry_Int_Tables_number  15
_chemical_formula_structural  VO2
_chemical_formula_sum  V6O2
_cell_volume  205.3335448615481
_cell_formula_units_Z  6
loop_
  _symmetry_equiv_pos_site_id
 _symmetry_equiv_pos_as_xyz
 1  'x, y, z'
loop_
 _atom_site_type_symbol
 _atom_site_label
 _atom_site_symmetry_multiplicity
 _atom_site_fract_x
 _atom_site_fract_y
 _atom_site_fract_z
 _atom_site_fract_occupancy
 O  O1  1  0.39829  0.20096  0.46970  1
 O  O2  1  0.30224  0.88863  0.11910  1
 O  O3  1  0.80227  0.37456  0.60495  1
 O  O4  1  0.55986  0.82120  0.53107  1
 O  O5  1  0.69775  0.11910  0.88863  1
 O  O6  1  0.19773  0.60495  0.37456  1
 O  O7  1  0.44014  0.53106  0.82120  1
 O  O8  1  0.94015  0.67239  0.96258  1
 O  O9  1  0.10179  0.29261  0.02393  1
 O  O10  1  0.60172  0.46970  0.20096  1
 O  O11  1  0.05985  0.96258  0.67239  1
 O  O12  1  0.89820  0.02394  0.29261  1
 V  V1  1  0.27407  0.92758  0.42673  1
 V  V2  1  0.72593  0.42673  0.92758  1
 V  V3  1  0.50000  0.48703  0.48704  1
 V  V4  1  0.22595  0.56600  0.06693  1
 V  V5  1  0.77405  0.06693  0.56599  1
 V  V6  1  -0.00000  0.00655  0.00655  1
