CIF file written using JARVIS-Tools package.
data_Rb3FeS3
_symmetry_space_group_name_H-M  'P2_1/c'
_cell_length_a       12.7863
_cell_length_b       7.92323
_cell_length_c       10.2453
_cell_angle_alpha    52.7196
_cell_angle_beta     90
_cell_angle_gamma    90

_symmetry_Int_Tables_number  14
_chemical_formula_structural  Rb3FeS3
_chemical_formula_sum  Rb2Fe4S2
_cell_volume  825.8706718855439
_cell_formula_units_Z  4
loop_
  _symmetry_equiv_pos_site_id
 _symmetry_equiv_pos_as_xyz
 1  'x, y, z'
loop_
 _atom_site_type_symbol
 _atom_site_label
 _atom_site_symmetry_multiplicity
 _atom_site_fract_x
 _atom_site_fract_y
 _atom_site_fract_z
 _atom_site_fract_occupancy
 Fe  Fe1  1  0.44507  0.06100  0.35131  1
 Fe  Fe2  1  0.55493  0.93900  0.64869  1
 Fe  Fe3  1  0.05493  0.06100  0.85131  1
 Fe  Fe4  1  0.94507  0.93900  0.14869  1
 Rb  Rb1  1  0.68912  0.12677  0.07675  1
 Rb  Rb2  1  0.18912  0.87323  0.42325  1
 Rb  Rb3  1  0.31088  0.87323  0.92325  1
 Rb  Rb4  1  0.81088  0.12677  0.57675  1
 Rb  Rb5  1  0.92519  0.63934  0.61238  1
 Rb  Rb6  1  0.36416  0.38807  0.48572  1
 Rb  Rb7  1  0.13584  0.38807  0.98572  1
 Rb  Rb8  1  0.63584  0.61193  0.51428  1
 Rb  Rb9  1  0.57481  0.63934  0.11238  1
 Rb  Rb10  1  0.07481  0.36066  0.38762  1
 Rb  Rb11  1  0.42519  0.36066  0.88762  1
 Rb  Rb12  1  0.86416  0.61193  0.01428  1
 S  S1  1  0.16004  0.34726  0.69818  1
 S  S2  1  0.66004  0.65274  0.80182  1
 S  S3  1  0.44774  0.88221  0.24630  1
 S  S4  1  0.94774  0.11779  0.25370  1
 S  S5  1  0.55226  0.11779  0.75370  1
 S  S6  1  0.88951  0.13312  0.88300  1
 S  S7  1  0.38951  0.86688  0.61700  1
 S  S8  1  0.61049  0.13312  0.38300  1
 S  S9  1  0.11049  0.86688  0.11700  1
 S  S10  1  0.33996  0.34726  0.19818  1
 S  S11  1  0.05226  0.88221  0.74630  1
 S  S12  1  0.83996  0.65274  0.30182  1
