CIF file written using JARVIS-Tools package.
data_Ti6Ga16Rh7
_symmetry_space_group_name_H-M  'Fm-3m'
_cell_length_a       8.60423
_cell_length_b       8.60422
_cell_length_c       8.60422
_cell_angle_alpha    60
_cell_angle_beta     60
_cell_angle_gamma    60

_symmetry_Int_Tables_number  225
_chemical_formula_structural  Ti6Ga16Rh7
_chemical_formula_sum  Ti6Ga6Rh7
_cell_volume  450.4225671059952
_cell_formula_units_Z  1
loop_
  _symmetry_equiv_pos_site_id
 _symmetry_equiv_pos_as_xyz
 1  'x, y, z'
loop_
 _atom_site_type_symbol
 _atom_site_label
 _atom_site_symmetry_multiplicity
 _atom_site_fract_x
 _atom_site_fract_y
 _atom_site_fract_z
 _atom_site_fract_occupancy
 Ga  Ga1  1  0.87666  0.87666  0.37002  1
 Ga  Ga2  1  0.12334  0.12334  0.62998  1
 Ga  Ga3  1  0.12334  0.12334  0.12334  1
 Ga  Ga4  1  0.37002  0.87666  0.87666  1
 Ga  Ga5  1  0.87666  0.37002  0.87666  1
 Ga  Ga6  1  0.87666  0.87666  0.87666  1
 Ga  Ga7  1  0.94039  0.35320  0.35320  1
 Ga  Ga8  1  0.35320  0.94039  0.35320  1
 Ga  Ga9  1  0.35320  0.35320  0.94039  1
 Ga  Ga10  1  0.12334  0.62998  0.12334  1
 Ga  Ga11  1  0.35320  0.35320  0.35320  1
 Ga  Ga12  1  0.64680  0.05961  0.64680  1
 Ga  Ga13  1  0.64680  0.64680  0.05961  1
 Ga  Ga14  1  0.64680  0.64680  0.64680  1
 Ga  Ga15  1  0.05961  0.64680  0.64680  1
 Ga  Ga16  1  0.62998  0.12334  0.12334  1
 Rh  Rh1  1  0.00000  0.50000  0.00000  1
 Rh  Rh2  1  0.00000  0.00000  0.00000  1
 Rh  Rh3  1  0.50000  0.00000  0.00000  1
 Rh  Rh4  1  0.50000  0.00000  0.50000  1
 Rh  Rh5  1  0.50000  0.50000  0.00000  1
 Rh  Rh6  1  0.00000  0.00000  0.50000  1
 Rh  Rh7  1  0.00000  0.50000  0.50000  1
 Ti  Ti1  1  0.30092  0.30092  0.69908  1
 Ti  Ti2  1  0.30092  0.69908  0.30092  1
 Ti  Ti3  1  0.30092  0.69908  0.69908  1
 Ti  Ti4  1  0.69908  0.69908  0.30092  1
 Ti  Ti5  1  0.69908  0.30092  0.69908  1
 Ti  Ti6  1  0.69908  0.30092  0.30092  1
