CIF file written using JARVIS-Tools package.
data_H6C7SN2
_symmetry_space_group_name_H-M  'P1'
_cell_length_a       5.44918
_cell_length_b       7.25809
_cell_length_c       7.77224
_cell_angle_alpha    88.2903
_cell_angle_beta     90.1678
_cell_angle_gamma    88.2558

_symmetry_Int_Tables_number  1
_chemical_formula_structural  H6C7SN2
_chemical_formula_sum  H2C4S2N4
_cell_volume  307.1160155320083
_cell_formula_units_Z  2
loop_
  _symmetry_equiv_pos_site_id
 _symmetry_equiv_pos_as_xyz
 1  'x, y, z'
loop_
 _atom_site_type_symbol
 _atom_site_label
 _atom_site_symmetry_multiplicity
 _atom_site_fract_x
 _atom_site_fract_y
 _atom_site_fract_z
 _atom_site_fract_occupancy
 C  C1  1  0.18284  0.51197  0.92481  1
 C  C2  1  0.01241  0.06804  0.65322  1
 C  C3  1  0.30063  0.01811  0.25315  1
 C  C4  1  0.21808  0.98723  0.57450  1
 C  C5  1  0.41943  0.92617  0.67467  1
 C  C6  1  0.20133  0.01208  0.93236  1
 C  C7  1  0.00431  0.08069  0.83064  1
 C  C8  1  0.41177  0.93867  0.85376  1
 C  C9  1  0.06934  0.53236  0.24379  1
 C  C10  1  0.37709  0.42444  0.65883  1
 C  C11  1  0.38338  0.43540  0.83502  1
 C  C12  1  0.97782  0.58021  0.83197  1
 C  C13  1  0.16893  0.48846  0.56469  1
 C  C14  1  0.97026  0.56704  0.65277  1
 H  H1  1  0.02790  0.88368  0.37270  1
 H  H2  1  0.54328  0.38159  0.90695  1
 H  H3  1  0.57656  0.86002  0.61320  1
 H  H4  1  0.56225  0.88164  0.93307  1
 H  H5  1  0.97690  0.97094  0.13810  1
 H  H6  1  0.84292  0.14028  0.89310  1
 H  H7  1  0.39119  0.46161  0.13535  1
 H  H8  1  0.33972  0.37915  0.36024  1
 H  H9  1  0.53245  0.36281  0.59108  1
 H  H10  1  0.85731  0.11677  0.57347  1
 H  H11  1  0.82314  0.64170  0.89928  1
 H  H12  1  0.80820  0.61577  0.58162  1
 N  N1  1  0.19071  0.94682  0.39662  1
 N  N2  1  0.18598  0.45904  0.38732  1
 N  N3  1  0.15590  0.00127  0.11140  1
 N  N4  1  0.21779  0.51045  0.10398  1
 S  S1  1  0.57373  0.12440  0.25345  1
 S  S2  1  0.78879  0.63905  0.24149  1
