CIF file written using JARVIS-Tools package.
data_Li2Mn3SbO8
_symmetry_space_group_name_H-M  'C2/m'
_cell_length_a       5.75416
_cell_length_b       5.97192
_cell_length_c       8.92267
_cell_angle_alpha    87.0999
_cell_angle_beta     90
_cell_angle_gamma    89.9999

_symmetry_Int_Tables_number  12
_chemical_formula_structural  Li2Mn3SbO8
_chemical_formula_sum  Li4Mn6Sb2O6
_cell_volume  306.2197855238011
_cell_formula_units_Z  2
loop_
  _symmetry_equiv_pos_site_id
 _symmetry_equiv_pos_as_xyz
 1  'x, y, z'
loop_
 _atom_site_type_symbol
 _atom_site_label
 _atom_site_symmetry_multiplicity
 _atom_site_fract_x
 _atom_site_fract_y
 _atom_site_fract_z
 _atom_site_fract_occupancy
 Li  Li1  1  0.00001  0.24767  0.13649  1
 Li  Li2  1  0.49999  0.74766  0.63649  1
 Li  Li3  1  -0.00001  0.75233  0.86351  1
 Li  Li4  1  0.50000  0.25234  0.36351  1
 Mn  Mn1  1  0.25004  0.25000  0.74998  1
 Mn  Mn2  1  0.74996  0.75000  0.25002  1
 Mn  Mn3  1  0.50000  0.00000  -0.00000  1
 Mn  Mn4  1  -0.00000  0.50000  0.50000  1
 Mn  Mn5  1  0.24996  0.75001  0.24998  1
 Mn  Mn6  1  0.75004  0.24999  0.75002  1
 O  O1  1  0.50003  0.03372  0.77995  1
 O  O2  1  -0.00002  0.53372  0.27995  1
 O  O3  1  0.77169  0.25860  0.49669  1
 O  O4  1  0.00002  0.46628  0.72005  1
 O  O5  1  0.49997  0.96628  0.22005  1
 O  O6  1  0.22830  0.74140  0.50331  1
 O  O7  1  0.72831  0.24140  0.00331  1
 O  O8  1  0.27170  0.24140  0.00331  1
 O  O9  1  0.72830  0.75860  -0.00331  1
 O  O10  1  0.00003  0.02738  0.73291  1
 O  O11  1  0.49997  0.52738  0.23291  1
 O  O12  1  0.22831  0.25860  0.49669  1
 O  O13  1  0.77169  0.74140  0.50331  1
 O  O14  1  -0.00003  0.97262  0.26709  1
 O  O15  1  0.50003  0.47262  0.76709  1
 O  O16  1  0.27169  0.75860  0.99669  1
 Sb  Sb1  1  0.50000  0.50000  -0.00000  1
 Sb  Sb2  1  -0.00000  -0.00000  0.50000  1
