CIF file written using JARVIS-Tools package.
data_CrNO2
_symmetry_space_group_name_H-M  'Imm2'
_cell_length_a       3.87588
_cell_length_b       3.87588
_cell_length_c       3.87588
_cell_angle_alpha    132.805
_cell_angle_beta     101.255
_cell_angle_gamma    97.1996

_symmetry_Int_Tables_number  44
_chemical_formula_structural  CrNO2
_chemical_formula_sum  CrNO2
_cell_volume  39.11235467551293
_cell_formula_units_Z  1
loop_
  _symmetry_equiv_pos_site_id
 _symmetry_equiv_pos_as_xyz
 1  'x, y, z'
loop_
 _atom_site_type_symbol
 _atom_site_label
 _atom_site_symmetry_multiplicity
 _atom_site_fract_x
 _atom_site_fract_y
 _atom_site_fract_z
 _atom_site_fract_occupancy
 Cr  Cr1  1  0.00654  0.00654  -0.00000  1
 N  N1  1  0.63714  0.63714  -0.00000  1
 O  O1  1  0.70708  0.47816  0.22892  1
 O  O2  1  0.24923  0.47816  0.77108  1
