CIF file written using JARVIS-Tools package.
data_MgCoF5
_symmetry_space_group_name_H-M  'C2/c'
_cell_length_a       5.0994
_cell_length_b       5.0994
_cell_length_c       7.05359
_cell_angle_alpha    70.003
_cell_angle_beta     70.0029
_cell_angle_gamma    72.2426

_symmetry_Int_Tables_number  15
_chemical_formula_structural  MgCoF5
_chemical_formula_sum  Mg2Co2F0
_cell_volume  158.25545013871076
_cell_formula_units_Z  2
loop_
  _symmetry_equiv_pos_site_id
 _symmetry_equiv_pos_as_xyz
 1  'x, y, z'
loop_
 _atom_site_type_symbol
 _atom_site_label
 _atom_site_symmetry_multiplicity
 _atom_site_fract_x
 _atom_site_fract_y
 _atom_site_fract_z
 _atom_site_fract_occupancy
 Co  Co1  1  0.00000  0.00000  0.00000  1
 Co  Co2  1  -0.00000  0.00000  0.50000  1
 F  F1  1  0.10209  0.89791  0.25000  1
 F  F2  1  0.89791  0.10209  0.75000  1
 F  F3  1  0.19985  0.28513  0.36718  1
 F  F4  1  0.71487  0.80015  0.13282  1
 F  F5  1  0.72258  0.32745  0.03246  1
 F  F6  1  0.67255  0.27742  0.46754  1
 F  F7  1  0.27742  0.67255  0.96754  1
 F  F8  1  0.32745  0.72258  0.53246  1
 F  F9  1  0.28513  0.19985  0.86718  1
 F  F10  1  0.80015  0.71487  0.63282  1
 Mg  Mg1  1  0.53457  0.46543  0.75000  1
 Mg  Mg2  1  0.46543  0.53457  0.25000  1
