CIF file written using JARVIS-Tools package.
data_MoH8N2O4
_symmetry_space_group_name_H-M  'C2/m'
_cell_length_a       7.14046
_cell_length_b       7.14045
_cell_length_c       7.70207
_cell_angle_alpha    65.4999
_cell_angle_beta     65.4999
_cell_angle_gamma    54.7618

_symmetry_Int_Tables_number  12
_chemical_formula_structural  MoH8N2O4
_chemical_formula_sum  Mo2H6N4O8
_cell_volume  283.6144807890203
_cell_formula_units_Z  2
loop_
  _symmetry_equiv_pos_site_id
 _symmetry_equiv_pos_as_xyz
 1  'x, y, z'
loop_
 _atom_site_type_symbol
 _atom_site_label
 _atom_site_symmetry_multiplicity
 _atom_site_fract_x
 _atom_site_fract_y
 _atom_site_fract_z
 _atom_site_fract_occupancy
 H  H1  1  0.43620  0.43620  0.84175  1
 H  H2  1  0.32943  0.58400  0.36193  1
 H  H3  1  0.90961  0.90961  0.25448  1
 H  H4  1  0.09039  0.09039  0.74552  1
 H  H5  1  0.09531  0.34660  0.69513  1
 H  H6  1  0.90469  0.65340  0.30487  1
 H  H7  1  0.34660  0.09531  0.69513  1
 H  H8  1  0.13962  0.13962  0.91312  1
 H  H9  1  0.86038  0.86038  0.08688  1
 H  H10  1  0.65340  0.90469  0.30487  1
 H  H11  1  0.41600  0.67057  0.63807  1
 H  H12  1  0.67057  0.41600  0.63807  1
 H  H13  1  0.58400  0.32943  0.36193  1
 H  H14  1  0.56380  0.56380  0.15825  1
 H  H15  1  0.57986  0.57986  0.79357  1
 H  H16  1  0.42014  0.42014  0.20643  1
 Mo  Mo1  1  0.83264  0.83264  0.72448  1
 Mo  Mo2  1  0.16736  0.16736  0.27552  1
 N  N1  1  0.16728  0.16728  0.76186  1
 N  N2  1  0.83272  0.83272  0.23814  1
 N  N3  1  0.47636  0.47636  0.27124  1
 N  N4  1  0.52364  0.52364  0.72876  1
 O  O1  1  0.68054  0.68054  0.90828  1
 O  O2  1  0.92949  0.92949  0.83296  1
 O  O3  1  0.07051  0.07051  0.16704  1
 O  O4  1  0.36326  0.92262  0.42344  1
 O  O5  1  0.07738  0.63674  0.57656  1
 O  O6  1  0.63674  0.07738  0.57656  1
 O  O7  1  0.92262  0.36326  0.42344  1
 O  O8  1  0.31946  0.31946  0.09172  1
