CIF file written using JARVIS-Tools package.
data_SnH6C4O6
_symmetry_space_group_name_H-M  'P-1'
_cell_length_a       4.9001
_cell_length_b       5.19501
_cell_length_c       6.60056
_cell_angle_alpha    79.3091
_cell_angle_beta     85.3986
_cell_angle_gamma    82.3014

_symmetry_Int_Tables_number  2
_chemical_formula_structural  SnH6C4O6
_chemical_formula_sum  SnH6C4O6
_cell_volume  163.35471538924438
_cell_formula_units_Z  1
loop_
  _symmetry_equiv_pos_site_id
 _symmetry_equiv_pos_as_xyz
 1  'x, y, z'
loop_
 _atom_site_type_symbol
 _atom_site_label
 _atom_site_symmetry_multiplicity
 _atom_site_fract_x
 _atom_site_fract_y
 _atom_site_fract_z
 _atom_site_fract_occupancy
 C  C1  1  0.60964  0.28683  0.28152  1
 C  C2  1  0.41635  0.35549  0.10396  1
 C  C3  1  0.54335  0.49373  0.90557  1
 C  C4  1  0.48263  0.14856  0.47989  1
 H  H1  1  0.34440  0.17669  0.06953  1
 H  H2  1  0.23028  0.48550  0.14218  1
 H  H3  1  0.68157  0.46563  0.31597  1
 H  H4  1  0.79573  0.15684  0.24330  1
 H  H5  1  -0.02344  0.15779  0.91740  1
 H  H6  1  0.04945  0.48456  0.46805  1
 O  O1  1  0.22266  0.12856  0.49056  1
 O  O2  1  0.62743  0.06253  0.63622  1
 O  O3  1  0.39852  0.57971  0.74925  1
 O  O4  1  0.04234  0.96826  0.94437  1
 O  O5  1  0.80332  0.51374  0.89487  1
 O  O6  1  0.98365  0.67409  0.44107  1
 Sn  Sn1  1  0.01300  0.82117  0.69272  1
