CIF file written using JARVIS-Tools package.
data_Zr5Si3N
_symmetry_space_group_name_H-M  'P6_3/mcm'
_cell_length_a       7.93486
_cell_length_b       7.93486
_cell_length_c       5.62927
_cell_angle_alpha    90
_cell_angle_beta     90
_cell_angle_gamma    120

_symmetry_Int_Tables_number  193
_chemical_formula_structural  Zr5Si3N
_chemical_formula_sum  Zr0Si6N2
_cell_volume  306.94583028647264
_cell_formula_units_Z  2
loop_
  _symmetry_equiv_pos_site_id
 _symmetry_equiv_pos_as_xyz
 1  'x, y, z'
loop_
 _atom_site_type_symbol
 _atom_site_label
 _atom_site_symmetry_multiplicity
 _atom_site_fract_x
 _atom_site_fract_y
 _atom_site_fract_z
 _atom_site_fract_occupancy
 N  N1  1  0.00000  0.00000  0.00000  1
 N  N2  1  0.00000  0.00000  0.50000  1
 Si  Si1  1  0.59541  0.59541  0.25000  1
 Si  Si2  1  0.40459  0.40459  0.75000  1
 Si  Si3  1  -0.00000  0.40459  0.25000  1
 Si  Si4  1  0.00000  0.59541  0.75000  1
 Si  Si5  1  0.40459  -0.00000  0.25000  1
 Si  Si6  1  0.59541  0.00000  0.75000  1
 Zr  Zr1  1  0.76666  0.76666  0.75000  1
 Zr  Zr2  1  0.23334  0.00000  0.75000  1
 Zr  Zr3  1  -0.00000  0.76666  0.25000  1
 Zr  Zr4  1  0.66667  0.33333  0.00000  1
 Zr  Zr5  1  0.23334  0.23334  0.25000  1
 Zr  Zr6  1  0.33333  0.66667  0.50000  1
 Zr  Zr7  1  0.66667  0.33333  0.50000  1
 Zr  Zr8  1  0.33333  0.66667  0.00000  1
 Zr  Zr9  1  0.00000  0.23334  0.75000  1
 Zr  Zr10  1  0.76666  -0.00000  0.25000  1
