CIF file written using JARVIS-Tools package.
data_TiH8C5O4
_symmetry_space_group_name_H-M  'P1'
_cell_length_a       4.87019
_cell_length_b       7.46181
_cell_length_c       6.0864
_cell_angle_alpha    53.9596
_cell_angle_beta     85.5497
_cell_angle_gamma    80.1528

_symmetry_Int_Tables_number  1
_chemical_formula_structural  TiH8C5O4
_chemical_formula_sum  TiH8C5O4
_cell_volume  176.14009294605046
_cell_formula_units_Z  1
loop_
  _symmetry_equiv_pos_site_id
 _symmetry_equiv_pos_as_xyz
 1  'x, y, z'
loop_
 _atom_site_type_symbol
 _atom_site_label
 _atom_site_symmetry_multiplicity
 _atom_site_fract_x
 _atom_site_fract_y
 _atom_site_fract_z
 _atom_site_fract_occupancy
 C  C1  1  0.65008  0.86043  0.04786  1
 C  C2  1  0.79382  0.21415  0.27932  1
 C  C3  1  0.11951  0.45308  0.46787  1
 C  C4  1  0.18464  0.56920  0.77226  1
 C  C5  1  0.23459  0.38024  0.73847  1
 H  H1  1  0.73602  0.17895  0.13775  1
 H  H2  1  0.12751  0.24418  0.90186  1
 H  H3  1  0.51466  0.98021  -0.13527  1
 H  H4  1  0.01993  0.16540  0.32285  1
 H  H5  1  0.45894  0.32443  0.75116  1
 H  H6  1  0.68695  0.11321  0.47059  1
 H  H7  1  0.86005  0.90634  0.00901  1
 H  H8  1  0.56171  0.85483  0.22276  1
 O  O1  1  0.39407  0.65607  0.75995  1
 O  O2  1  -0.05909  0.63208  0.81491  1
 O  O3  1  0.86670  0.45980  0.43715  1
 O  O4  1  0.29695  0.50564  0.27653  1
 Ti  Ti1  1  0.63545  0.56460  0.07585  1
