CIF file written using JARVIS-Tools package.
data_TiH24C13O4
_symmetry_space_group_name_H-M  'P1'
_cell_length_a       4.91302
_cell_length_b       6.57759
_cell_length_c       11.4659
_cell_angle_alpha    72.9096
_cell_angle_beta     83.2215
_cell_angle_gamma    87.4864

_symmetry_Int_Tables_number  1
_chemical_formula_structural  TiH24C13O4
_chemical_formula_sum  TiH24C3O4
_cell_volume  351.6763713059812
_cell_formula_units_Z  1
loop_
  _symmetry_equiv_pos_site_id
 _symmetry_equiv_pos_as_xyz
 1  'x, y, z'
loop_
 _atom_site_type_symbol
 _atom_site_label
 _atom_site_symmetry_multiplicity
 _atom_site_fract_x
 _atom_site_fract_y
 _atom_site_fract_z
 _atom_site_fract_occupancy
 C  C1  1  0.90120  0.65690  0.45526  1
 C  C2  1  0.39858  0.48552  0.10543  1
 C  C3  1  0.81113  0.93341  0.24946  1
 C  C4  1  0.11237  0.43028  0.17205  1
 C  C5  1  0.10214  0.02131  0.23253  1
 C  C6  1  0.70243  0.81919  0.38356  1
 C  C7  1  0.11270  0.22060  0.27688  1
 C  C8  1  0.76666  0.50978  0.57633  1
 C  C9  1  0.58435  0.33964  0.55769  1
 C  C10  1  0.48095  0.18135  0.67790  1
 C  C11  1  0.15760  0.76259  0.73359  1
 C  C12  1  0.42744  0.69180  0.00226  1
 C  C13  1  0.95725  0.20221  0.91970  1
 H  H1  1  0.15954  0.25764  0.92758  1
 H  H2  1  0.99764  0.55904  0.39795  1
 H  H3  1  0.37885  0.75135  0.73925  1
 H  H4  1  0.51202  0.73754  0.38317  1
 H  H5  1  0.64299  0.93552  0.43483  1
 H  H6  1  0.11665  0.83537  0.63790  1
 H  H7  1  0.92668  0.42822  0.63247  1
 H  H8  1  0.54246  0.49376  0.17073  1
 H  H9  1  0.48296  0.36027  0.06460  1
 H  H10  1  0.70879  0.24884  0.50326  1
 H  H11  1  0.97255  0.42001  0.10606  1
 H  H12  1  0.40768  0.40938  0.50900  1
 H  H13  1  0.29418  0.21567  0.32610  1
 H  H14  1  0.93464  0.21982  0.34502  1
 H  H15  1  0.64282  0.60471  0.62814  1
 H  H16  1  0.83855  0.33397  0.86489  1
 H  H17  1  0.23596  0.89530  0.28136  1
 H  H18  1  0.06603  0.60371  0.76951  1
 H  H19  1  0.03689  0.56146  0.20853  1
 H  H20  1  0.66937  0.06408  0.21147  1
 H  H21  1  0.80611  0.82244  0.19411  1
 H  H22  1  0.84308  0.13672  0.01097  1
 H  H23  1  0.18362  0.05939  0.13511  1
 H  H24  1  0.06910  0.74142  0.47605  1
 O  O1  1  0.66711  0.06729  0.74110  1
 O  O2  1  0.23039  0.16185  0.71254  1
 O  O3  1  0.22120  0.80107  0.96456  1
 O  O4  1  0.67651  0.74431  0.95843  1
 Ti  Ti1  1  0.94316  0.94309  0.84395  1
