CIF file written using JARVIS-Tools package.
data_Li7Si2Ni3O12
_symmetry_space_group_name_H-M  'C2/m'
_cell_length_a       4.86789
_cell_length_b       4.86413
_cell_length_c       9.57929
_cell_angle_alpha    85.2102
_cell_angle_beta     99.6117
_cell_angle_gamma    120.023

_symmetry_Int_Tables_number  12
_chemical_formula_structural  Li7Si2Ni3O12
_chemical_formula_sum  Li7Si2Ni3O2
_cell_volume  193.62788050765428
_cell_formula_units_Z  1
loop_
  _symmetry_equiv_pos_site_id
 _symmetry_equiv_pos_as_xyz
 1  'x, y, z'
loop_
 _atom_site_type_symbol
 _atom_site_label
 _atom_site_symmetry_multiplicity
 _atom_site_fract_x
 _atom_site_fract_y
 _atom_site_fract_z
 _atom_site_fract_occupancy
 Li  Li1  1  0.58329  0.66658  0.75000  1
 Li  Li2  1  0.34029  0.66669  0.99676  1
 Li  Li3  1  0.82641  0.66670  0.50324  1
 Li  Li4  1  0.17760  0.34266  0.50274  1
 Li  Li5  1  0.66508  0.34268  0.99726  1
 Li  Li6  1  0.50155  0.99066  0.50272  1
 Li  Li7  1  0.98911  0.99068  0.99727  1
 Ni  Ni1  1  0.74882  -0.00237  0.25000  1
 Ni  Ni2  1  0.08335  0.66671  0.25000  1
 Ni  Ni3  1  0.41792  0.33583  0.25000  1
 O  O1  1  0.91935  0.03762  0.64435  1
 O  O2  1  0.61829  0.03764  0.85565  1
 O  O3  1  0.46142  0.66666  0.37002  1
 O  O4  1  0.70529  0.66675  0.12998  1
 O  O5  1  0.17799  0.66659  0.64453  1
 O  O6  1  0.98862  0.66662  0.85547  1
 O  O7  1  0.04998  0.33806  0.13794  1
 O  O8  1  0.78807  0.33800  0.36205  1
 O  O9  1  0.37864  -0.00454  0.13796  1
 O  O10  1  0.11678  -0.00460  0.36205  1
 O  O11  1  0.24725  0.29557  0.85565  1
 O  O12  1  0.54832  0.29556  0.64436  1
 Si  Si1  1  0.91657  0.33314  0.75000  1
 Si  Si2  1  0.25003  0.00005  0.75000  1
