CIF file written using JARVIS-Tools package.
data_AlBO4
_symmetry_space_group_name_H-M  'Cmm2'
_cell_length_a       4.03903
_cell_length_b       4.03903
_cell_length_c       3.05219
_cell_angle_alpha    90
_cell_angle_beta     90
_cell_angle_gamma    100.183

_symmetry_Int_Tables_number  35
_chemical_formula_structural  AlBO4
_chemical_formula_sum  AlBO4
_cell_volume  49.00846091183327
_cell_formula_units_Z  1
loop_
  _symmetry_equiv_pos_site_id
 _symmetry_equiv_pos_as_xyz
 1  'x, y, z'
loop_
 _atom_site_type_symbol
 _atom_site_label
 _atom_site_symmetry_multiplicity
 _atom_site_fract_x
 _atom_site_fract_y
 _atom_site_fract_z
 _atom_site_fract_occupancy
 Al  Al1  1  0.00000  0.00000  0.01962  1
 B  B1  1  0.50000  0.50000  0.32237  1
 O  O1  1  0.29779  0.70221  0.06444  1
 O  O2  1  0.76142  0.76142  0.51661  1
 O  O3  1  0.70221  0.29779  0.06444  1
 O  O4  1  0.23858  0.23858  0.51661  1
