CIF file written using JARVIS-Tools package.
data_TiH18C10O4
_symmetry_space_group_name_H-M  'P1'
_cell_length_a       6.00169
_cell_length_b       5.34879
_cell_length_c       9.14891
_cell_angle_alpha    102.195
_cell_angle_beta     95.6246
_cell_angle_gamma    94.7259

_symmetry_Int_Tables_number  1
_chemical_formula_structural  TiH18C10O4
_chemical_formula_sum  TiH8C0O4
_cell_volume  284.07825036360776
_cell_formula_units_Z  1
loop_
  _symmetry_equiv_pos_site_id
 _symmetry_equiv_pos_as_xyz
 1  'x, y, z'
loop_
 _atom_site_type_symbol
 _atom_site_label
 _atom_site_symmetry_multiplicity
 _atom_site_fract_x
 _atom_site_fract_y
 _atom_site_fract_z
 _atom_site_fract_occupancy
 C  C1  1  0.24044  0.72028  0.18912  1
 C  C2  1  0.87962  0.13057  0.54658  1
 C  C3  1  0.41309  0.53440  0.52891  1
 C  C4  1  0.53616  0.15261  0.87972  1
 C  C5  1  0.15717  0.53630  0.28463  1
 C  C6  1  0.22565  0.64646  0.45406  1
 C  C7  1  0.43888  -0.00904  0.97704  1
 C  C8  1  0.58012  0.98525  0.12524  1
 C  C9  1  0.49711  0.75386  0.18861  1
 C  C10  1  0.94962  0.63957  0.79541  1
 H  H1  1  0.97232  0.50239  0.26252  1
 H  H2  1  0.55030  0.57643  0.12167  1
 H  H3  1  0.75842  0.97806  0.10749  1
 H  H4  1  0.58284  0.77837  0.30360  1
 H  H5  1  0.41183  0.79629  0.90317  1
 H  H6  1  0.26698  0.85613  0.47894  1
 H  H7  1  0.08369  0.61297  0.51773  1
 H  H8  1  0.89258  0.19208  0.44013  1
 H  H9  1  0.21979  0.34737  0.25086  1
 H  H10  1  0.78779  0.93683  0.52285  1
 H  H11  1  0.15889  0.65063  0.07314  1
 H  H12  1  0.09297  0.53376  0.82051  1
 H  H13  1  -0.00384  0.78700  0.73374  1
 H  H14  1  0.88930  0.73447  0.90100  1
 H  H15  1  0.04713  0.13049  0.60695  1
 H  H16  1  0.18172  0.90957  0.23165  1
 H  H17  1  0.26935  0.04615  -0.00609  1
 H  H18  1  0.57030  0.16396  0.20886  1
 O  O1  1  0.40720  0.24220  0.78653  1
 O  O2  1  0.53280  0.67090  0.64936  1
 O  O3  1  0.75017  0.19903  0.87685  1
 O  O4  1  0.45928  0.30303  0.48622  1
 Ti  Ti1  1  0.69282  0.35811  0.69026  1
