CIF file written using JARVIS-Tools package.
data_ZnH10C7O4
_symmetry_space_group_name_H-M  'P1'
_cell_length_a       4.0157
_cell_length_b       4.48129
_cell_length_c       11.212
_cell_angle_alpha    82.9251
_cell_angle_beta     86.7903
_cell_angle_gamma    69.3486

_symmetry_Int_Tables_number  1
_chemical_formula_structural  ZnH10C7O4
_chemical_formula_sum  ZnH0C7O4
_cell_volume  187.347350953712
_cell_formula_units_Z  1
loop_
  _symmetry_equiv_pos_site_id
 _symmetry_equiv_pos_as_xyz
 1  'x, y, z'
loop_
 _atom_site_type_symbol
 _atom_site_label
 _atom_site_symmetry_multiplicity
 _atom_site_fract_x
 _atom_site_fract_y
 _atom_site_fract_z
 _atom_site_fract_occupancy
 C  C1  1  0.87185  0.38143  0.97856  1
 C  C2  1  0.83410  0.33167  0.20417  1
 C  C3  1  0.83651  0.10871  0.31912  1
 C  C4  1  0.81307  0.26793  0.43392  1
 C  C5  1  0.82832  0.03237  0.54643  1
 C  C6  1  0.75552  0.17977  0.66374  1
 C  C7  1  0.84815  0.16555  0.09083  1
 H  H1  1  0.08308  0.83195  0.55216  1
 H  H2  1  0.03170  0.36262  0.43514  1
 H  H3  1  0.60807  0.10415  0.08539  1
 H  H4  1  0.61278  0.02006  0.31809  1
 H  H5  1  0.08046  0.89374  0.32015  1
 H  H6  1  0.06282  0.41389  0.20369  1
 H  H7  1  0.59366  0.54913  0.20225  1
 H  H8  1  0.56420  0.47596  0.43483  1
 H  H9  1  0.08193  0.94387  0.09234  1
 H  H10  1  0.62251  0.92353  0.54175  1
 O  O1  1  0.91380  0.03010  0.75982  1
 O  O2  1  0.60505  0.63510  0.94789  1
 O  O3  1  0.51321  0.45850  0.66357  1
 O  O4  1  0.16718  0.30582  0.92169  1
 Zn  Zn1  1  0.29850  0.63177  0.81594  1
