CIF file written using JARVIS-Tools package.
data_ZnH4C4O4
_symmetry_space_group_name_H-M  'P1'
_cell_length_a       4.03496
_cell_length_b       4.79718
_cell_length_c       6.75818
_cell_angle_alpha    87.5614
_cell_angle_beta     90.8489
_cell_angle_gamma    80.629

_symmetry_Int_Tables_number  1
_chemical_formula_structural  ZnH4C4O4
_chemical_formula_sum  ZnH4C4O4
_cell_volume  128.92033178734656
_cell_formula_units_Z  1
loop_
  _symmetry_equiv_pos_site_id
 _symmetry_equiv_pos_as_xyz
 1  'x, y, z'
loop_
 _atom_site_type_symbol
 _atom_site_label
 _atom_site_symmetry_multiplicity
 _atom_site_fract_x
 _atom_site_fract_y
 _atom_site_fract_z
 _atom_site_fract_occupancy
 C  C1  1  0.98482  0.12530  0.45652  1
 C  C2  1  0.85654  0.20109  0.24572  1
 C  C3  1  0.75477  0.51666  0.19667  1
 C  C4  1  0.60095  0.57599  0.99101  1
 H  H1  1  0.04575  0.10644  0.14236  1
 H  H2  1  0.63919  0.09216  0.22581  1
 H  H3  1  0.96936  0.62619  0.21150  1
 H  H4  1  0.56356  0.60822  0.30090  1
 O  O1  1  0.13809  0.86838  0.48446  1
 O  O2  1  0.92798  0.29761  0.59288  1
 O  O3  1  0.69340  0.76289  0.87260  1
 O  O4  1  0.36432  0.44218  0.94344  1
 Zn  Zn1  1  0.10152  0.62677  0.71442  1
