CIF file written using JARVIS-Tools package.
data_H4C10S3O
_symmetry_space_group_name_H-M  'Pm'
_cell_length_a       3.71234
_cell_length_b       6.18933
_cell_length_c       10.0025
_cell_angle_alpha    89.9806
_cell_angle_beta     90.0067
_cell_angle_gamma    74.4884

_symmetry_Int_Tables_number  6
_chemical_formula_structural  H4C10S3O
_chemical_formula_sum  H4C0S3O
_cell_volume  221.45470068053515
_cell_formula_units_Z  1
loop_
  _symmetry_equiv_pos_site_id
 _symmetry_equiv_pos_as_xyz
 1  'x, y, z'
loop_
 _atom_site_type_symbol
 _atom_site_label
 _atom_site_symmetry_multiplicity
 _atom_site_fract_x
 _atom_site_fract_y
 _atom_site_fract_z
 _atom_site_fract_occupancy
 C  C1  1  0.10671  0.49786  0.92982  1
 C  C2  1  -0.00985  0.30607  0.37800  1
 C  C3  1  0.07748  0.29329  0.87928  1
 C  C4  1  0.07615  0.29347  0.24020  1
 C  C5  1  0.82904  0.62613  0.55973  1
 C  C6  1  0.18060  0.58682  0.05975  1
 C  C7  1  0.93808  0.52159  0.68915  1
 C  C8  1  0.10651  0.49788  0.18969  1
 C  C9  1  -0.00863  0.30593  0.74148  1
 C  C10  1  0.93800  0.52157  0.43034  1
 H  H1  1  0.12181  0.13989  0.18183  1
 H  H2  1  0.12417  0.13955  0.93762  1
 H  H3  1  -0.05095  0.16518  0.43507  1
 H  H4  1  -0.04876  0.16488  0.68438  1
 O  O1  1  0.27070  0.76858  0.05973  1
 S  S1  1  0.01120  0.70532  0.30949  1
 S  S2  1  0.01029  0.70547  0.81003  1
 S  S3  1  0.59926  0.89888  0.55964  1
