CIF file written using JARVIS-Tools package.
data_SrLiCrF6
_symmetry_space_group_name_H-M  'P-31c'
_cell_length_a       5.18205
_cell_length_b       5.18205
_cell_length_c       10.4214
_cell_angle_alpha    90
_cell_angle_beta     90
_cell_angle_gamma    120

_symmetry_Int_Tables_number  163
_chemical_formula_structural  SrLiCrF6
_chemical_formula_sum  Sr2Li2Cr2F2
_cell_volume  242.35941070912995
_cell_formula_units_Z  2
loop_
  _symmetry_equiv_pos_site_id
 _symmetry_equiv_pos_as_xyz
 1  'x, y, z'
loop_
 _atom_site_type_symbol
 _atom_site_label
 _atom_site_symmetry_multiplicity
 _atom_site_fract_x
 _atom_site_fract_y
 _atom_site_fract_z
 _atom_site_fract_occupancy
 Cr  Cr1  1  0.66667  0.33333  0.75000  1
 Cr  Cr2  1  0.33333  0.66667  0.25000  1
 F  F1  1  0.98494  0.36013  0.85491  1
 F  F2  1  0.63987  0.01506  0.64509  1
 F  F3  1  0.36013  0.98494  0.35491  1
 F  F4  1  0.37519  0.01506  0.85491  1
 F  F5  1  0.63987  0.62481  0.85491  1
 F  F6  1  0.98494  0.62481  0.64509  1
 F  F7  1  0.36013  0.37519  0.14509  1
 F  F8  1  0.62481  0.98494  0.14509  1
 F  F9  1  0.01506  0.37519  0.35491  1
 F  F10  1  0.62481  0.63987  0.35491  1
 F  F11  1  0.01506  0.63987  0.14509  1
 F  F12  1  0.37519  0.36013  0.64509  1
 Li  Li1  1  0.66667  0.33333  0.25000  1
 Li  Li2  1  0.33333  0.66667  0.75000  1
 Sr  Sr1  1  0.00000  0.00000  0.00000  1
 Sr  Sr2  1  0.00000  0.00000  0.50000  1
