CIF file written using JARVIS-Tools package.
data_Ni2P3O10
_symmetry_space_group_name_H-M  'P2_1/m'
_cell_length_a       8.25648
_cell_length_b       4.60865
_cell_length_c       8.86418
_cell_angle_alpha    82.1836
_cell_angle_beta     90
_cell_angle_gamma    90

_symmetry_Int_Tables_number  11
_chemical_formula_structural  Ni2P3O10
_chemical_formula_sum  Ni4P6O20
_cell_volume  334.1592454662518
_cell_formula_units_Z  2
loop_
  _symmetry_equiv_pos_site_id
 _symmetry_equiv_pos_as_xyz
 1  'x, y, z'
loop_
 _atom_site_type_symbol
 _atom_site_label
 _atom_site_symmetry_multiplicity
 _atom_site_fract_x
 _atom_site_fract_y
 _atom_site_fract_z
 _atom_site_fract_occupancy
 Ni  Ni1  1  0.93098  0.04201  0.66521  1
 Ni  Ni2  1  0.56902  0.04201  0.66521  1
 Ni  Ni3  1  0.43098  0.95799  0.33479  1
 Ni  Ni4  1  0.06902  0.95799  0.33479  1
 O  O1  1  0.75000  0.53186  0.02148  1
 O  O2  1  0.90536  0.16143  0.20247  1
 O  O3  1  0.59464  0.16143  0.20247  1
 O  O4  1  0.25000  0.20566  0.23831  1
 O  O5  1  0.75000  0.28778  0.54450  1
 O  O6  1  0.40536  0.83857  0.79753  1
 O  O7  1  0.75000  0.79434  0.76169  1
 O  O8  1  0.59314  0.76964  0.49165  1
 O  O9  1  0.09464  0.83857  0.79753  1
 O  O10  1  0.25000  0.71222  0.45550  1
 O  O11  1  0.40683  0.68356  0.18250  1
 O  O12  1  0.09314  0.23036  0.50835  1
 O  O13  1  0.25000  0.40810  0.71609  1
 O  O14  1  0.90686  0.76964  0.49165  1
 O  O15  1  0.25000  0.46814  0.97852  1
 O  O16  1  0.90683  0.31644  0.81750  1
 O  O17  1  0.59317  0.31644  0.81750  1
 O  O18  1  0.09317  0.68356  0.18250  1
 O  O19  1  0.75000  0.59190  0.28391  1
 O  O20  1  0.40686  0.23036  0.50835  1
 P  P1  1  0.25000  0.52691  0.15286  1
 P  P2  1  0.75000  0.60380  0.46115  1
 P  P3  1  0.75000  0.47309  0.84714  1
 P  P4  1  0.75000  0.32918  0.18169  1
 P  P5  1  0.25000  0.39620  0.53885  1
 P  P6  1  0.25000  0.67082  0.81831  1
