CIF file written using JARVIS-Tools package.
data_Sm2Si5Rh3
_symmetry_space_group_name_H-M  'Ibam'
_cell_length_a       8.21376
_cell_length_b       8.21376
_cell_length_c       8.21375
_cell_angle_alpha    138.296
_cell_angle_beta     105.74
_cell_angle_gamma    88.9765

_symmetry_Int_Tables_number  72
_chemical_formula_structural  Sm2Si5Rh3
_chemical_formula_sum  Sm4Si0Rh6
_cell_volume  339.763650073494
_cell_formula_units_Z  2
loop_
  _symmetry_equiv_pos_site_id
 _symmetry_equiv_pos_as_xyz
 1  'x, y, z'
loop_
 _atom_site_type_symbol
 _atom_site_label
 _atom_site_symmetry_multiplicity
 _atom_site_fract_x
 _atom_site_fract_y
 _atom_site_fract_z
 _atom_site_fract_occupancy
 Rh  Rh1  1  0.50000  0.25000  0.75000  1
 Rh  Rh2  1  0.03046  0.13929  0.89118  1
 Rh  Rh3  1  0.75189  0.36071  0.39118  1
 Rh  Rh4  1  0.24811  0.63929  0.60882  1
 Rh  Rh5  1  0.50000  0.75000  0.25000  1
 Rh  Rh6  1  0.96954  0.86071  0.10882  1
 Si  Si1  1  0.45002  0.60562  0.84440  1
 Si  Si2  1  0.27661  0.02661  0.75000  1
 Si  Si3  1  0.72339  0.97339  0.25000  1
 Si  Si4  1  0.72339  0.47339  0.75000  1
 Si  Si5  1  0.27661  0.52661  0.25000  1
 Si  Si6  1  0.76122  0.10562  0.65560  1
 Si  Si7  1  0.23878  0.89438  0.34440  1
 Si  Si8  1  0.00000  0.75000  0.75000  1
 Si  Si9  1  0.00000  0.25000  0.25000  1
 Si  Si10  1  0.54998  0.39438  0.15560  1
 Sm  Sm1  1  0.89882  0.63123  0.26758  1
 Sm  Sm2  1  0.10118  0.36877  0.73242  1
 Sm  Sm3  1  0.36365  0.13123  0.23242  1
 Sm  Sm4  1  0.63635  0.86877  0.76758  1
