CIF file written using JARVIS-Tools package.
data_Li2CrPO4F
_symmetry_space_group_name_H-M  'P1'
_cell_length_a       5.21641
_cell_length_b       5.51625
_cell_length_c       7.46682
_cell_angle_alpha    107.48
_cell_angle_beta     107.168
_cell_angle_gamma    93.7581

_symmetry_Int_Tables_number  1
_chemical_formula_structural  Li2CrPO4F
_chemical_formula_sum  Li4Cr2P2O8F2
_cell_volume  192.98123588664347
_cell_formula_units_Z  2
loop_
  _symmetry_equiv_pos_site_id
 _symmetry_equiv_pos_as_xyz
 1  'x, y, z'
loop_
 _atom_site_type_symbol
 _atom_site_label
 _atom_site_symmetry_multiplicity
 _atom_site_fract_x
 _atom_site_fract_y
 _atom_site_fract_z
 _atom_site_fract_occupancy
 Cr  Cr1  1  0.00823  0.99543  0.51025  1
 Cr  Cr2  1  -0.00139  0.00406  0.02213  1
 F  F1  1  0.15808  0.85298  0.29185  1
 F  F2  1  0.83808  0.13475  0.72400  1
 Li  Li1  1  0.11474  0.53497  0.09461  1
 Li  Li2  1  0.50144  0.88413  0.46827  1
 Li  Li3  1  0.52528  0.21790  0.85481  1
 Li  Li4  1  0.75407  0.44528  0.64472  1
 O  O1  1  0.68577  0.59614  0.41205  1
 O  O2  1  0.64131  0.78475  0.96329  1
 O  O3  1  0.83732  0.32064  0.12866  1
 O  O4  1  0.69091  0.13212  0.36481  1
 O  O5  1  0.37340  0.40617  0.66950  1
 O  O6  1  0.32344  0.87189  0.67266  1
 O  O7  1  0.12117  0.67624  0.87701  1
 O  O8  1  0.34936  0.26226  0.09472  1
 P  P1  1  0.64133  0.32935  0.25313  1
 P  P2  1  0.36535  0.68255  0.79494  1
