CIF file written using JARVIS-Tools package.
data_NiPO4
_symmetry_space_group_name_H-M  'Pna2_1'
_cell_length_a       4.87849
_cell_length_b       6.64019
_cell_length_c       9.97325
_cell_angle_alpha    90
_cell_angle_beta     90
_cell_angle_gamma    90

_symmetry_Int_Tables_number  33
_chemical_formula_structural  NiPO4
_chemical_formula_sum  Ni4P4O6
_cell_volume  323.0746095700347
_cell_formula_units_Z  4
loop_
  _symmetry_equiv_pos_site_id
 _symmetry_equiv_pos_as_xyz
 1  'x, y, z'
loop_
 _atom_site_type_symbol
 _atom_site_label
 _atom_site_symmetry_multiplicity
 _atom_site_fract_x
 _atom_site_fract_y
 _atom_site_fract_z
 _atom_site_fract_occupancy
 Ni  Ni1  1  0.16129  0.29266  0.33652  1
 Ni  Ni2  1  0.66129  0.79266  0.16348  1
 Ni  Ni3  1  0.83871  0.79266  0.66348  1
 Ni  Ni4  1  0.33871  0.29266  0.83652  1
 O  O1  1  0.26996  0.51439  0.43552  1
 O  O2  1  0.65488  0.56068  0.60617  1
 O  O3  1  0.84512  0.56068  0.10617  1
 O  O4  1  0.75713  0.84337  0.34075  1
 O  O5  1  0.24287  0.34337  0.65925  1
 O  O6  1  0.29302  0.73148  0.14154  1
 O  O7  1  0.70698  0.23148  0.85846  1
 O  O8  1  0.76996  0.01439  0.06448  1
 O  O9  1  0.74287  0.84337  0.84075  1
 O  O10  1  0.23004  0.51439  0.93552  1
 O  O11  1  0.73004  0.01439  0.56448  1
 O  O12  1  0.20698  0.73148  0.64154  1
 O  O13  1  0.34512  0.06068  0.39383  1
 O  O14  1  0.15488  0.06068  0.89383  1
 O  O15  1  0.25713  0.34337  0.15925  1
 O  O16  1  0.79302  0.23148  0.35846  1
 P  P1  1  0.15873  0.53730  0.08590  1
 P  P2  1  0.65873  0.03730  0.41410  1
 P  P3  1  0.34127  0.53730  0.58590  1
 P  P4  1  0.84127  0.03730  0.91410  1
