CIF file written using JARVIS-Tools package.
data_CrP2O7
_symmetry_space_group_name_H-M  'P2_1'
_cell_length_a       4.75326
_cell_length_b       6.93839
_cell_length_c       7.78282
_cell_angle_alpha    90
_cell_angle_beta     90.0001
_cell_angle_gamma    107.014

_symmetry_Int_Tables_number  4
_chemical_formula_structural  CrP2O7
_chemical_formula_sum  Cr2P4O4
_cell_volume  245.44366824240015
_cell_formula_units_Z  2
loop_
  _symmetry_equiv_pos_site_id
 _symmetry_equiv_pos_as_xyz
 1  'x, y, z'
loop_
 _atom_site_type_symbol
 _atom_site_label
 _atom_site_symmetry_multiplicity
 _atom_site_fract_x
 _atom_site_fract_y
 _atom_site_fract_z
 _atom_site_fract_occupancy
 Cr  Cr1  1  0.21829  0.72799  0.50543  1
 Cr  Cr2  1  0.78171  0.27201  0.00543  1
 O  O1  1  0.27501  0.51572  0.36789  1
 O  O2  1  0.72499  0.48428  0.86789  1
 O  O3  1  0.13403  0.90717  0.66977  1
 O  O4  1  0.15678  0.45597  0.05007  1
 O  O5  1  0.94565  0.16171  0.81898  1
 O  O6  1  0.86597  0.09283  0.16977  1
 O  O7  1  0.41023  0.09610  0.93133  1
 O  O8  1  0.58977  0.90390  0.43133  1
 O  O9  1  0.40944  0.26776  0.63926  1
 O  O10  1  0.59057  0.73224  0.13926  1
 O  O11  1  0.59416  0.36871  0.18780  1
 O  O12  1  0.40584  0.63129  0.68780  1
 O  O13  1  0.05435  0.83829  0.31898  1
 O  O14  1  0.84322  0.54403  0.55007  1
 P  P1  1  0.77966  0.89898  0.27201  1
 P  P2  1  0.22034  0.10102  0.77201  1
 P  P3  1  0.39551  0.50734  0.18706  1
 P  P4  1  0.60449  0.49265  0.68706  1
