CIF file written using JARVIS-Tools package.
data_TbRbW2O8
_symmetry_space_group_name_H-M  'C2/c'
_cell_length_a       7.51891
_cell_length_b       7.51891
_cell_length_c       7.57409
_cell_angle_alpha    62.4408
_cell_angle_beta     62.4408
_cell_angle_gamma    88.8861

_symmetry_Int_Tables_number  15
_chemical_formula_structural  TbRbW2O8
_chemical_formula_sum  Tb2Rb2W4O6
_cell_volume  326.0542650131596
_cell_formula_units_Z  2
loop_
  _symmetry_equiv_pos_site_id
 _symmetry_equiv_pos_as_xyz
 1  'x, y, z'
loop_
 _atom_site_type_symbol
 _atom_site_label
 _atom_site_symmetry_multiplicity
 _atom_site_fract_x
 _atom_site_fract_y
 _atom_site_fract_z
 _atom_site_fract_occupancy
 O  O1  1  0.63169  0.41474  0.52894  1
 O  O2  1  0.61877  0.75973  0.55879  1
 O  O3  1  0.38123  0.24027  0.44121  1
 O  O4  1  0.24027  0.38123  0.94121  1
 O  O5  1  0.04644  0.20705  0.80881  1
 O  O6  1  0.38469  0.06584  0.87135  1
 O  O7  1  0.61531  0.93416  0.12865  1
 O  O8  1  0.75973  0.61877  0.05879  1
 O  O9  1  0.06584  0.38469  0.37135  1
 O  O10  1  0.58526  0.36831  0.97106  1
 O  O11  1  0.41474  0.63169  0.02894  1
 O  O12  1  0.95356  0.79295  0.19119  1
 O  O13  1  0.36831  0.58526  0.47106  1
 O  O14  1  0.79295  0.95356  0.69119  1
 O  O15  1  0.20705  0.04644  0.30881  1
 O  O16  1  0.93416  0.61531  0.62865  1
 Rb  Rb1  1  0.80043  0.19957  0.25000  1
 Rb  Rb2  1  0.19957  0.80043  0.75000  1
 Tb  Tb1  1  0.22783  0.77217  0.25000  1
 Tb  Tb2  1  0.77217  0.22783  0.75000  1
 W  W1  1  0.69311  0.69824  0.26980  1
 W  W2  1  0.30689  0.30176  0.73020  1
 W  W3  1  0.30176  0.30689  0.23020  1
 W  W4  1  0.69824  0.69311  0.76980  1
