CIF file written using JARVIS-Tools package.
data_H6C12SO2
_symmetry_space_group_name_H-M  'P1'
_cell_length_a       5.89696
_cell_length_b       7.5474
_cell_length_c       10.1122
_cell_angle_alpha    104.817
_cell_angle_beta     93.7714
_cell_angle_gamma    95.7779

_symmetry_Int_Tables_number  1
_chemical_formula_structural  H6C12SO2
_chemical_formula_sum  H2C24S2O4
_cell_volume  430.9224629033948
_cell_formula_units_Z  2
loop_
  _symmetry_equiv_pos_site_id
 _symmetry_equiv_pos_as_xyz
 1  'x, y, z'
loop_
 _atom_site_type_symbol
 _atom_site_label
 _atom_site_symmetry_multiplicity
 _atom_site_fract_x
 _atom_site_fract_y
 _atom_site_fract_z
 _atom_site_fract_occupancy
 C  C1  1  0.04314  0.44783  0.59185  1
 C  C2  1  0.78347  0.67148  0.77351  1
 C  C3  1  0.14435  0.27505  0.94148  1
 C  C4  1  0.04314  0.94783  0.59185  1
 C  C5  1  0.13556  0.53726  0.72428  1
 C  C6  1  0.13556  0.03727  0.72428  1
 C  C7  1  0.82096  0.97316  0.54686  1
 C  C8  1  0.01002  0.65401  0.81502  1
 C  C9  1  0.01002  0.15401  0.81502  1
 C  C10  1  0.69098  0.58157  0.63949  1
 C  C11  1  0.69098  0.08157  0.63949  1
 C  C12  1  0.72080  0.88370  0.40230  1
 C  C13  1  0.18678  0.96590  0.18350  1
 C  C14  1  0.18678  0.46590  0.18350  1
 C  C15  1  0.72080  0.38370  0.40230  1
 C  C16  1  0.08378  0.49604  0.30626  1
 C  C17  1  0.05275  0.83979  0.07499  1
 C  C18  1  0.08378  0.99604  0.30626  1
 C  C19  1  0.87027  0.89223  0.29332  1
 C  C20  1  0.87027  0.39223  0.29332  1
 C  C21  1  0.14435  0.77504  0.94148  1
 C  C22  1  0.05275  0.33979  0.07499  1
 C  C23  1  0.82096  0.47316  0.54686  1
 C  C24  1  0.78347  0.17148  0.77352  1
 H  H1  1  0.30711  0.01872  0.76012  1
 H  H2  1  0.35443  0.53093  0.17229  1
 H  H3  1  0.14454  0.85927  0.52311  1
 H  H4  1  0.68239  0.76231  0.84101  1
 H  H5  1  0.52057  0.60314  0.60335  1
 H  H6  1  0.52057  0.10314  0.60335  1
 H  H7  1  0.68239  0.26231  0.84101  1
 H  H8  1  0.35443  0.03093  0.17229  1
 H  H9  1  0.16412  0.58956  0.40138  1
 H  H10  1  0.16413  0.08956  0.40138  1
 H  H11  1  0.30711  0.51872  0.76012  1
 H  H12  1  0.14454  0.35927  0.52311  1
 O  O1  1  0.52103  0.30520  0.37751  1
 O  O2  1  0.34902  0.32639  0.93343  1
 O  O3  1  0.52103  0.80520  0.37752  1
 O  O4  1  0.34902  0.82639  0.93343  1
 S  S1  1  0.79368  0.76238  0.12523  1
 S  S2  1  0.79368  0.26238  0.12523  1
