CIF file written using JARVIS-Tools package.
data_H11C13N
_symmetry_space_group_name_H-M  'P1'
_cell_length_a       3.87197
_cell_length_b       6.5731
_cell_length_c       10.8476
_cell_angle_alpha    113.395
_cell_angle_beta     108.183
_cell_angle_gamma    106.423

_symmetry_Int_Tables_number  1
_chemical_formula_structural  H11C13N
_chemical_formula_sum  HC3N
_cell_volume  212.95146737330518
_cell_formula_units_Z  1
loop_
  _symmetry_equiv_pos_site_id
 _symmetry_equiv_pos_as_xyz
 1  'x, y, z'
loop_
 _atom_site_type_symbol
 _atom_site_label
 _atom_site_symmetry_multiplicity
 _atom_site_fract_x
 _atom_site_fract_y
 _atom_site_fract_z
 _atom_site_fract_occupancy
 C  C1  1  0.55191  0.73625  0.48610  1
 C  C2  1  0.57241  0.67883  0.08557  1
 C  C3  1  0.69989  0.84213  0.92441  1
 C  C4  1  0.45912  0.37602  0.68104  1
 C  C5  1  0.58036  0.34990  0.41680  1
 C  C6  1  0.45902  0.40034  0.81494  1
 C  C7  1  0.55735  0.31973  0.28003  1
 C  C8  1  0.58141  0.58361  0.66594  1
 C  C9  1  0.57469  0.55765  0.52355  1
 C  C10  1  0.53207  0.70972  0.34988  1
 C  C11  1  0.70254  0.81823  0.79187  1
 C  C12  1  0.57765  0.63406  0.93876  1
 C  C13  1  0.53157  0.49948  0.24308  1
 H  H1  1  0.51130  0.85267  0.32593  1
 H  H2  1  0.80353  0.98622  0.78737  1
 H  H3  1  0.86199  0.84675  0.18411  1
 H  H4  1  0.32393  0.72830  0.08755  1
 H  H5  1  0.62819  0.35845  0.06005  1
 H  H6  1  0.34921  0.18916  0.58492  1
 H  H7  1  0.61801  0.21300  0.44462  1
 H  H8  1  0.57357  0.15995  0.20196  1
 H  H9  1  0.80145  0.02752  0.02043  1
 H  H10  1  0.53757  0.89797  0.56285  1
 H  H11  1  0.35795  0.23251  0.81986  1
 N  N1  1  0.50182  0.46570  0.10408  1
