CIF file written using JARVIS-Tools package.
data_H2C5SO3
_symmetry_space_group_name_H-M  'P1'
_cell_length_a       3.65489
_cell_length_b       5.59722
_cell_length_c       6.48726
_cell_angle_alpha    72.2644
_cell_angle_beta     86.2722
_cell_angle_gamma    82.2956

_symmetry_Int_Tables_number  1
_chemical_formula_structural  H2C5SO3
_chemical_formula_sum  H2C5SO3
_cell_volume  125.2216964149581
_cell_formula_units_Z  1
loop_
  _symmetry_equiv_pos_site_id
 _symmetry_equiv_pos_as_xyz
 1  'x, y, z'
loop_
 _atom_site_type_symbol
 _atom_site_label
 _atom_site_symmetry_multiplicity
 _atom_site_fract_x
 _atom_site_fract_y
 _atom_site_fract_z
 _atom_site_fract_occupancy
 C  C1  1  0.14040  0.71652  0.62356  1
 C  C2  1  0.14114  0.91571  0.42322  1
 C  C3  1  0.96201  0.13761  0.44582  1
 C  C4  1  0.96123  0.79788  0.78631  1
 C  C5  1  0.03837  0.44067  0.10194  1
 H  H1  1  0.26622  0.52479  0.64348  1
 H  H2  1  0.27063  0.89266  0.27423  1
 O  O1  1  0.87641  0.37725  0.30236  1
 O  O2  1  0.87419  0.67677  0.00117  1
 O  O3  1  0.27808  0.31480  0.02994  1
 S  S1  1  0.79069  0.11464  0.70496  1
