CIF file written using JARVIS-Tools package.
data_Rb3DyP2O8
_symmetry_space_group_name_H-M  'P-3m1'
_cell_length_a       5.73836
_cell_length_b       5.73836
_cell_length_c       7.92809
_cell_angle_alpha    90
_cell_angle_beta     90
_cell_angle_gamma    120

_symmetry_Int_Tables_number  164
_chemical_formula_structural  Rb3DyP2O8
_chemical_formula_sum  Rb3DyP2O8
_cell_volume  226.08682236582385
_cell_formula_units_Z  1
loop_
  _symmetry_equiv_pos_site_id
 _symmetry_equiv_pos_as_xyz
 1  'x, y, z'
loop_
 _atom_site_type_symbol
 _atom_site_label
 _atom_site_symmetry_multiplicity
 _atom_site_fract_x
 _atom_site_fract_y
 _atom_site_fract_z
 _atom_site_fract_occupancy
 Dy  Dy1  1  0.00000  0.00000  0.50000  1
 O  O1  1  0.33333  0.66667  0.07660  1
 O  O2  1  0.66667  0.33333  0.92340  1
 O  O3  1  0.18580  0.81420  0.33803  1
 O  O4  1  0.81420  0.18580  0.66197  1
 O  O5  1  0.18580  0.37160  0.33803  1
 O  O6  1  0.81420  0.62840  0.66197  1
 O  O7  1  0.62840  0.81420  0.33803  1
 O  O8  1  0.37160  0.18580  0.66197  1
 P  P1  1  0.33333  0.66667  0.26819  1
 P  P2  1  0.66667  0.33333  0.73181  1
 Rb  Rb1  1  0.33333  0.66667  0.73660  1
 Rb  Rb2  1  0.66667  0.33333  0.26340  1
 Rb  Rb3  1  0.00000  0.00000  0.00000  1
