CIF file written using JARVIS-Tools package.
data_Zn2NF
_symmetry_space_group_name_H-M  'R-3m'
_cell_length_a       5.4785
_cell_length_b       5.4785
_cell_length_c       5.4785
_cell_angle_alpha    33.7627
_cell_angle_beta     33.7627
_cell_angle_gamma    33.7628

_symmetry_Int_Tables_number  166
_chemical_formula_structural  Zn2NF
_chemical_formula_sum  Zn2NF
_cell_volume  45.25233465587081
_cell_formula_units_Z  1
loop_
  _symmetry_equiv_pos_site_id
 _symmetry_equiv_pos_as_xyz
 1  'x, y, z'
loop_
 _atom_site_type_symbol
 _atom_site_label
 _atom_site_symmetry_multiplicity
 _atom_site_fract_x
 _atom_site_fract_y
 _atom_site_fract_z
 _atom_site_fract_occupancy
 F  F1  1  0.00000  0.00000  0.00000  1
 N  N1  1  0.50000  0.50000  0.50000  1
 Zn  Zn1  1  0.76783  0.76783  0.76782  1
 Zn  Zn2  1  0.23217  0.23217  0.23217  1
