CIF file written using JARVIS-Tools package.
data_MnAsO4
_symmetry_space_group_name_H-M  'Pnma'
_cell_length_a       4.92986
_cell_length_b       5.93614
_cell_length_c       10.1537
_cell_angle_alpha    90.0034
_cell_angle_beta     90
_cell_angle_gamma    90

_symmetry_Int_Tables_number  62
_chemical_formula_structural  MnAsO4
_chemical_formula_sum  Mn4As4O6
_cell_volume  297.1401959940049
_cell_formula_units_Z  4
loop_
  _symmetry_equiv_pos_site_id
 _symmetry_equiv_pos_as_xyz
 1  'x, y, z'
loop_
 _atom_site_type_symbol
 _atom_site_label
 _atom_site_symmetry_multiplicity
 _atom_site_fract_x
 _atom_site_fract_y
 _atom_site_fract_z
 _atom_site_fract_occupancy
 As  As1  1  0.40218  0.25001  0.08974  1
 As  As2  1  0.09782  0.25002  0.58974  1
 As  As3  1  0.90218  0.74999  0.41026  1
 As  As4  1  0.59782  0.74998  0.91026  1
 Mn  Mn1  1  0.56445  0.24999  0.77291  1
 Mn  Mn2  1  0.06445  0.75001  0.72709  1
 Mn  Mn3  1  0.93555  0.24999  0.27291  1
 Mn  Mn4  1  0.43555  0.75001  0.22709  1
 O  O1  1  0.16194  0.25000  0.42413  1
 O  O2  1  0.33806  0.24999  0.92413  1
 O  O3  1  0.83806  0.75001  0.57587  1
 O  O4  1  0.73654  0.96970  0.32831  1
 O  O5  1  0.74658  0.24999  0.11127  1
 O  O6  1  0.75342  0.24999  0.61127  1
 O  O7  1  0.66194  0.75000  0.07587  1
 O  O8  1  0.23657  0.46976  0.17168  1
 O  O9  1  0.23654  0.03030  0.17169  1
 O  O10  1  0.26346  0.03031  0.67169  1
 O  O11  1  0.24658  0.75001  0.38873  1
 O  O12  1  0.26343  0.46977  0.67168  1
 O  O13  1  0.76343  0.53023  0.82832  1
 O  O14  1  0.73656  0.53024  0.32832  1
 O  O15  1  0.25342  0.75001  0.88873  1
 O  O16  1  0.76346  0.96969  0.82831  1
