CIF file written using JARVIS-Tools package.
data_NdTm3S6
_symmetry_space_group_name_H-M  'P2_1/m'
_cell_length_a       3.9361
_cell_length_b       10.9624
_cell_length_c       11.2407
_cell_angle_alpha    71.0198
_cell_angle_beta     90
_cell_angle_gamma    90

_symmetry_Int_Tables_number  11
_chemical_formula_structural  NdTm3S6
_chemical_formula_sum  Nd2Tm6S2
_cell_volume  458.65473204054234
_cell_formula_units_Z  2
loop_
  _symmetry_equiv_pos_site_id
 _symmetry_equiv_pos_as_xyz
 1  'x, y, z'
loop_
 _atom_site_type_symbol
 _atom_site_label
 _atom_site_symmetry_multiplicity
 _atom_site_fract_x
 _atom_site_fract_y
 _atom_site_fract_z
 _atom_site_fract_occupancy
 Nd  Nd1  1  0.25000  0.95027  0.69606  1
 Nd  Nd2  1  0.75000  0.04973  0.30394  1
 S  S1  1  0.25000  0.52066  0.61273  1
 S  S2  1  0.25000  0.19829  0.75086  1
 S  S3  1  0.25000  0.08240  0.09315  1
 S  S4  1  0.75000  0.91760  0.90685  1
 S  S5  1  0.75000  0.47934  0.38727  1
 S  S6  1  0.75000  0.39336  0.94239  1
 S  S7  1  0.25000  0.26584  0.27150  1
 S  S8  1  0.75000  0.73416  0.72850  1
 S  S9  1  0.25000  0.88065  0.46403  1
 S  S10  1  0.75000  0.11935  0.53597  1
 S  S11  1  0.25000  0.60664  0.05761  1
 S  S12  1  0.75000  0.80171  0.24914  1
 Tm  Tm1  1  0.75000  0.16127  0.91293  1
 Tm  Tm2  1  0.25000  0.83873  0.08707  1
 Tm  Tm3  1  0.75000  0.67982  0.49869  1
 Tm  Tm4  1  0.25000  0.32018  0.50131  1
 Tm  Tm5  1  0.75000  0.44186  0.16687  1
 Tm  Tm6  1  0.25000  0.55814  0.83313  1
