CIF file written using JARVIS-Tools package.
data_H5C8SNO
_symmetry_space_group_name_H-M  'P1'
_cell_length_a       4.26736
_cell_length_b       5.69175
_cell_length_c       7.56108
_cell_angle_alpha    81.2816
_cell_angle_beta     87.7985
_cell_angle_gamma    74.9095

_symmetry_Int_Tables_number  1
_chemical_formula_structural  H5C8SNO
_chemical_formula_sum  H5C8SNO
_cell_volume  175.26718134804494
_cell_formula_units_Z  1
loop_
  _symmetry_equiv_pos_site_id
 _symmetry_equiv_pos_as_xyz
 1  'x, y, z'
loop_
 _atom_site_type_symbol
 _atom_site_label
 _atom_site_symmetry_multiplicity
 _atom_site_fract_x
 _atom_site_fract_y
 _atom_site_fract_z
 _atom_site_fract_occupancy
 C  C1  1  0.32740  0.66723  0.55532  1
 C  C2  1  0.29888  0.73051  0.37071  1
 C  C3  1  0.49959  0.42817  0.62830  1
 C  C4  1  0.42210  0.55188  0.25906  1
 C  C5  1  0.63002  0.39509  0.81147  1
 C  C6  1  0.48596  0.61898  0.06736  1
 C  C7  1  0.60364  0.24583  0.51846  1
 C  C8  1  0.55281  0.30492  0.33476  1
 H  H1  1  0.72830  0.05992  0.57804  1
 H  H2  1  0.20215  0.42645  0.95441  1
 H  H3  1  0.19196  0.91975  0.31075  1
 H  H4  1  0.24181  0.80584  0.64344  1
 H  H5  1  0.63680  0.16518  0.24740  1
 N  N1  1  0.41869  0.47694  0.94847  1
 O  O1  1  0.92405  0.30925  0.84039  1
 S  S1  1  0.66681  0.84138  0.00078  1
