CIF file written using JARVIS-Tools package.
data_H9C12NO
_symmetry_space_group_name_H-M  'P1'
_cell_length_a       3.82457
_cell_length_b       8.27461
_cell_length_c       13.0031
_cell_angle_alpha    86.2121
_cell_angle_beta     90.1149
_cell_angle_gamma    79.7443

_symmetry_Int_Tables_number  1
_chemical_formula_structural  H9C12NO
_chemical_formula_sum  H8C24N2O2
_cell_volume  404.00745014076574
_cell_formula_units_Z  2
loop_
  _symmetry_equiv_pos_site_id
 _symmetry_equiv_pos_as_xyz
 1  'x, y, z'
loop_
 _atom_site_type_symbol
 _atom_site_label
 _atom_site_symmetry_multiplicity
 _atom_site_fract_x
 _atom_site_fract_y
 _atom_site_fract_z
 _atom_site_fract_occupancy
 C  C1  1  0.74866  0.48936  0.08148  1
 C  C2  1  0.68277  0.92879  0.40190  1
 C  C3  1  0.18277  0.92879  0.90190  1
 C  C4  1  0.13267  0.24280  0.67829  1
 C  C5  1  0.63267  0.24280  0.17829  1
 C  C6  1  0.82678  0.76706  0.43512  1
 C  C7  1  0.23465  0.39785  0.67469  1
 C  C8  1  0.04053  0.66708  0.36906  1
 C  C9  1  0.24866  0.48936  0.58148  1
 C  C10  1  0.54052  0.66708  0.86906  1
 C  C11  1  0.60548  0.73015  0.77016  1
 C  C12  1  0.66176  0.42543  0.99002  1
 C  C13  1  0.74630  0.99447  0.30271  1
 C  C14  1  0.24630  0.99447  0.80271  1
 C  C15  1  0.05128  0.17917  0.58565  1
 C  C16  1  0.55128  0.17917  0.08565  1
 C  C17  1  0.10548  0.73015  0.27016  1
 C  C18  1  0.06588  0.27030  0.49241  1
 C  C19  1  0.56587  0.27030  0.99241  1
 C  C20  1  0.96087  0.89155  0.23710  1
 C  C21  1  0.46087  0.89155  0.73710  1
 C  C22  1  0.16176  0.42543  0.49002  1
 C  C23  1  0.32678  0.76706  0.93512  1
 C  C24  1  0.73465  0.39785  0.17469  1
 H  H1  1  0.01295  0.00516  0.95367  1
 H  H2  1  0.52252  0.93863  0.66042  1
 H  H3  1  0.53461  0.23314  0.33310  1
 H  H4  1  0.03461  0.23314  0.83310  1
 H  H5  1  0.30818  0.44580  0.74614  1
 H  H6  1  0.76751  0.72022  0.51196  1
 H  H7  1  0.26750  0.72022  0.01196  1
 H  H8  1  0.00253  0.22154  0.42030  1
 H  H9  1  0.02252  0.93863  0.16042  1
 H  H10  1  0.50253  0.22154  0.92030  1
 H  H11  1  0.96795  0.05996  0.58644  1
 H  H12  1  0.46795  0.05996  0.08644  1
 H  H13  1  0.27613  0.65186  0.21966  1
 H  H14  1  0.77613  0.65186  0.71966  1
 H  H15  1  0.33222  0.60845  0.58040  1
 H  H16  1  0.83222  0.60845  0.08040  1
 H  H17  1  0.51295  0.00516  0.45367  1
 H  H18  1  0.80818  0.44580  0.24614  1
 N  N1  1  0.60023  0.15896  0.27432  1
 N  N2  1  0.10023  0.15896  0.77432  1
 O  O1  1  0.69324  0.50215  0.89253  1
 O  O2  1  0.19324  0.50215  0.39253  1
