CIF file written using JARVIS-Tools package.
data_FeSO3
_symmetry_space_group_name_H-M  'R-3'
_cell_length_a       7.75936
_cell_length_b       7.75942
_cell_length_c       7.7592
_cell_angle_alpha    109.439
_cell_angle_beta     109.437
_cell_angle_gamma    109.436

_symmetry_Int_Tables_number  148
_chemical_formula_structural  FeSO3
_chemical_formula_sum  Fe6S6O8
_cell_volume  360.07675838873746
_cell_formula_units_Z  6
loop_
  _symmetry_equiv_pos_site_id
 _symmetry_equiv_pos_as_xyz
 1  'x, y, z'
loop_
 _atom_site_type_symbol
 _atom_site_label
 _atom_site_symmetry_multiplicity
 _atom_site_fract_x
 _atom_site_fract_y
 _atom_site_fract_z
 _atom_site_fract_occupancy
 Fe  Fe1  1  0.30761  0.11911  0.80598  1
 Fe  Fe2  1  0.19401  0.69240  0.88090  1
 Fe  Fe3  1  0.88089  0.19401  0.69239  1
 Fe  Fe4  1  0.80598  0.30760  0.11910  1
 Fe  Fe5  1  0.11911  0.80600  0.30761  1
 Fe  Fe6  1  0.69238  0.88089  0.19401  1
 O  O1  1  0.51433  0.19006  0.12639  1
 O  O2  1  0.63927  0.09451  0.39322  1
 O  O3  1  0.12639  0.51432  0.19007  1
 O  O4  1  0.36072  0.90548  0.60678  1
 O  O5  1  0.06097  0.83681  0.73807  1
 O  O6  1  0.60680  0.36071  0.90549  1
 O  O7  1  0.80994  0.87362  0.48568  1
 O  O8  1  0.09450  0.39321  0.63929  1
 O  O9  1  0.39321  0.63929  0.09452  1
 O  O10  1  0.90549  0.60679  0.36071  1
 O  O11  1  0.48567  0.80991  0.87360  1
 O  O12  1  0.26193  0.93906  0.16320  1
 O  O13  1  0.93903  0.16319  0.26193  1
 O  O14  1  0.19007  0.12639  0.51433  1
 O  O15  1  0.83680  0.73807  0.06097  1
 O  O16  1  0.87362  0.48569  0.80995  1
 O  O17  1  0.16321  0.26194  0.93904  1
 O  O18  1  0.73807  0.06093  0.83680  1
 S  S1  1  0.47318  0.15543  0.29784  1
 S  S2  1  0.29784  0.47319  0.15543  1
 S  S3  1  0.15541  0.29783  0.47318  1
 S  S4  1  0.70217  0.52682  0.84458  1
 S  S5  1  0.84459  0.70218  0.52682  1
 S  S6  1  0.52681  0.84456  0.70215  1
