CIF file written using JARVIS-Tools package.
data_Co2AsClO4
_symmetry_space_group_name_H-M  'P2_1/m'
_cell_length_a       6.65334
_cell_length_b       4.93807
_cell_length_c       6.79132
_cell_angle_alpha    88.6677
_cell_angle_beta     90
_cell_angle_gamma    90

_symmetry_Int_Tables_number  11
_chemical_formula_structural  Co2AsClO4
_chemical_formula_sum  Co4As2Cl2O8
_cell_volume  223.06651263462558
_cell_formula_units_Z  2
loop_
  _symmetry_equiv_pos_site_id
 _symmetry_equiv_pos_as_xyz
 1  'x, y, z'
loop_
 _atom_site_type_symbol
 _atom_site_label
 _atom_site_symmetry_multiplicity
 _atom_site_fract_x
 _atom_site_fract_y
 _atom_site_fract_z
 _atom_site_fract_occupancy
 As  As1  1  0.75000  0.50628  0.75615  1
 As  As2  1  0.25000  0.49372  0.24385  1
 Cl  Cl1  1  0.25000  0.81566  0.76629  1
 Cl  Cl2  1  0.75000  0.18434  0.23371  1
 Co  Co1  1  0.00000  0.00000  0.00000  1
 Co  Co2  1  0.25000  0.33966  0.73596  1
 Co  Co3  1  0.50000  0.00000  0.00000  1
 Co  Co4  1  0.75000  0.66034  0.26404  1
 O  O1  1  0.04394  0.70848  0.20973  1
 O  O2  1  0.25000  0.30779  0.45710  1
 O  O3  1  0.45606  0.70848  0.20973  1
 O  O4  1  0.95606  0.29152  0.79027  1
 O  O5  1  0.75000  0.69221  0.54290  1
 O  O6  1  0.25000  0.24478  0.05895  1
 O  O7  1  0.54394  0.29152  0.79027  1
 O  O8  1  0.75000  0.75522  0.94105  1
