CIF file written using JARVIS-Tools package.
data_Ba2MnNiClF7
_symmetry_space_group_name_H-M  'P2_1/m'
_cell_length_a       5.86256
_cell_length_b       7.66684
_cell_length_c       8.94063
_cell_angle_alpha    73.6144
_cell_angle_beta     90
_cell_angle_gamma    90

_symmetry_Int_Tables_number  11
_chemical_formula_structural  Ba2MnNiClF7
_chemical_formula_sum  Ba4Mn2Ni2Cl2F4
_cell_volume  385.5351714407947
_cell_formula_units_Z  2
loop_
  _symmetry_equiv_pos_site_id
 _symmetry_equiv_pos_as_xyz
 1  'x, y, z'
loop_
 _atom_site_type_symbol
 _atom_site_label
 _atom_site_symmetry_multiplicity
 _atom_site_fract_x
 _atom_site_fract_y
 _atom_site_fract_z
 _atom_site_fract_occupancy
 Ba  Ba1  1  0.25000  0.70056  0.07076  1
 Ba  Ba2  1  0.75000  0.29944  0.92924  1
 Ba  Ba3  1  0.75000  0.32840  0.41009  1
 Ba  Ba4  1  0.25000  0.67160  0.58991  1
 Cl  Cl1  1  0.25000  0.12169  0.45942  1
 Cl  Cl2  1  0.75000  0.87831  0.54058  1
 F  F1  1  0.00158  0.63725  0.34681  1
 F  F2  1  0.25000  0.25303  0.93419  1
 F  F3  1  0.49428  0.37795  0.15781  1
 F  F4  1  0.99428  0.62205  0.84219  1
 F  F5  1  0.00092  0.98941  0.82950  1
 F  F6  1  0.49908  0.98941  0.82950  1
 F  F7  1  0.50092  0.01059  0.17050  1
 F  F8  1  0.49842  0.63725  0.34681  1
 F  F9  1  0.50158  0.36275  0.65319  1
 F  F10  1  0.75000  0.74697  0.06581  1
 F  F11  1  0.50572  0.62205  0.84219  1
 F  F12  1  0.99842  0.36275  0.65319  1
 F  F13  1  -0.00092  0.01059  0.17050  1
 F  F14  1  0.00572  0.37795  0.15781  1
 Mn  Mn1  1  0.75000  0.82981  0.26716  1
 Mn  Mn2  1  0.25000  0.17019  0.73284  1
 Ni  Ni1  1  0.25000  0.18987  0.17351  1
 Ni  Ni2  1  0.75000  0.81013  0.82649  1
