CIF file written using JARVIS-Tools package.
data_SnH12C7O4
_symmetry_space_group_name_H-M  'P1'
_cell_length_a       5.03946
_cell_length_b       6.30931
_cell_length_c       7.17915
_cell_angle_alpha    94.5461
_cell_angle_beta     92.0326
_cell_angle_gamma    96.2917

_symmetry_Int_Tables_number  1
_chemical_formula_structural  SnH12C7O4
_chemical_formula_sum  SnH2C7O4
_cell_volume  225.95173947501797
_cell_formula_units_Z  1
loop_
  _symmetry_equiv_pos_site_id
 _symmetry_equiv_pos_as_xyz
 1  'x, y, z'
loop_
 _atom_site_type_symbol
 _atom_site_label
 _atom_site_symmetry_multiplicity
 _atom_site_fract_x
 _atom_site_fract_y
 _atom_site_fract_z
 _atom_site_fract_occupancy
 C  C1  1  0.63983  0.85274  0.36660  1
 C  C2  1  -0.00118  0.37981  0.48699  1
 C  C3  1  0.66601  0.43704  0.93157  1
 C  C4  1  0.50965  0.31812  0.07396  1
 C  C5  1  0.61813  0.10528  0.10690  1
 C  C6  1  0.47160  0.98934  0.25906  1
 C  C7  1  0.07018  0.93294  0.78616  1
 H  H1  1  0.29729  0.29835  0.02996  1
 H  H2  1  0.28865  0.88905  0.20543  1
 H  H3  1  0.39923  0.10385  0.36449  1
 H  H4  1  0.53012  0.42264  0.20581  1
 H  H5  1  0.18656  0.35153  0.55710  1
 H  H6  1  0.26572  -0.04243  0.72486  1
 H  H7  1  0.95727  0.06852  0.76746  1
 H  H8  1  0.08976  0.90553  0.93418  1
 H  H9  1  0.02906  0.42168  0.34373  1
 H  H10  1  0.85064  0.24043  0.49055  1
 H  H11  1  0.83195  0.13588  0.14552  1
 H  H12  1  0.59999  0.00081  0.97598  1
 O  O1  1  0.53590  0.52926  0.80611  1
 O  O2  1  0.88112  0.83640  0.33740  1
 O  O3  1  0.91726  0.44803  0.92846  1
 O  O4  1  0.52620  0.75641  0.50315  1
 Sn  Sn1  1  0.86939  0.64767  0.64392  1
