CIF file written using JARVIS-Tools package.
data_Ca3MnCoO6
_symmetry_space_group_name_H-M  'C2/c'
_cell_length_a       6.32426
_cell_length_b       6.35769
_cell_length_c       6.32401
_cell_angle_alpha    92.2883
_cell_angle_beta     92.2526
_cell_angle_gamma    92.2892

_symmetry_Int_Tables_number  15
_chemical_formula_structural  Ca3MnCoO6
_chemical_formula_sum  Ca6Mn2Co2O2
_cell_volume  253.65515488249443
_cell_formula_units_Z  2
loop_
  _symmetry_equiv_pos_site_id
 _symmetry_equiv_pos_as_xyz
 1  'x, y, z'
loop_
 _atom_site_type_symbol
 _atom_site_label
 _atom_site_symmetry_multiplicity
 _atom_site_fract_x
 _atom_site_fract_y
 _atom_site_fract_z
 _atom_site_fract_occupancy
 Ca  Ca1  1  0.88478  0.24995  0.61520  1
 Ca  Ca2  1  0.61260  0.88774  0.24643  1
 Ca  Ca3  1  0.25363  0.61228  0.88741  1
 Ca  Ca4  1  0.11520  0.75002  0.38478  1
 Ca  Ca5  1  0.38743  0.11226  0.75360  1
 Ca  Ca6  1  0.74640  0.38771  0.11261  1
 Co  Co1  1  0.75686  0.74988  0.74328  1
 Co  Co2  1  0.24323  0.24999  0.25680  1
 Mn  Mn1  1  0.49996  0.50002  0.50001  1
 Mn  Mn2  1  0.00001  0.00003  0.99996  1
 O  O1  1  0.04428  0.91795  0.70964  1
 O  O2  1  0.28659  0.95052  0.08148  1
 O  O3  1  0.08884  0.28698  0.95770  1
 O  O4  1  0.79033  0.58220  0.45583  1
 O  O5  1  0.95576  0.08214  0.29032  1
 O  O6  1  0.91114  0.71302  0.04228  1
 O  O7  1  0.54232  0.21306  0.41115  1
 O  O8  1  0.41854  0.54948  0.21342  1
 O  O9  1  0.20963  0.41789  0.54421  1
 O  O10  1  0.45766  0.78695  0.58884  1
 O  O11  1  0.58142  0.45049  0.78661  1
 O  O12  1  0.71344  0.04946  0.91848  1
