CIF file written using JARVIS-Tools package.
data_Nd2Co3Ge5
_symmetry_space_group_name_H-M  'Ibam'
_cell_length_a       8.2284
_cell_length_b       8.22841
_cell_length_c       8.2284
_cell_angle_alpha    137.927
_cell_angle_beta     106.964
_cell_angle_gamma    88.0481

_symmetry_Int_Tables_number  72
_chemical_formula_structural  Nd2Co3Ge5
_chemical_formula_sum  Nd4Co6Ge0
_cell_volume  342.28474855861106
_cell_formula_units_Z  2
loop_
  _symmetry_equiv_pos_site_id
 _symmetry_equiv_pos_as_xyz
 1  'x, y, z'
loop_
 _atom_site_type_symbol
 _atom_site_label
 _atom_site_symmetry_multiplicity
 _atom_site_fract_x
 _atom_site_fract_y
 _atom_site_fract_z
 _atom_site_fract_occupancy
 Co  Co1  1  0.02951  0.13700  0.89252  1
 Co  Co2  1  0.50000  0.75000  0.25000  1
 Co  Co3  1  0.97049  0.86300  0.10748  1
 Co  Co4  1  0.50000  0.25000  0.75000  1
 Co  Co5  1  0.75552  0.36300  0.39252  1
 Co  Co6  1  0.24448  0.63700  0.60748  1
 Ge  Ge1  1  0.75533  0.09669  0.65863  1
 Ge  Ge2  1  0.56194  0.40331  0.15863  1
 Ge  Ge3  1  0.43806  0.59669  0.84137  1
 Ge  Ge4  1  0.26763  0.51763  0.25000  1
 Ge  Ge5  1  0.73237  0.48237  0.75000  1
 Ge  Ge6  1  0.73237  0.98237  0.25000  1
 Ge  Ge7  1  0.00000  0.25000  0.25000  1
 Ge  Ge8  1  0.00000  0.75000  0.75000  1
 Ge  Ge9  1  0.24467  0.90331  0.34137  1
 Ge  Ge10  1  0.26763  0.01763  0.75000  1
 Nd  Nd1  1  0.89839  0.63467  0.26371  1
 Nd  Nd2  1  0.10161  0.36533  0.73629  1
 Nd  Nd3  1  0.37096  0.13467  0.23629  1
 Nd  Nd4  1  0.62904  0.86533  0.76371  1
