CIF file written using JARVIS-Tools package.
data_NaLaAgTe4
_symmetry_space_group_name_H-M  'P4/nmm'
_cell_length_a       4.47103
_cell_length_b       4.47196
_cell_length_c       20.7873
_cell_angle_alpha    90
_cell_angle_beta     90
_cell_angle_gamma    90

_symmetry_Int_Tables_number  129
_chemical_formula_structural  NaLaAgTe4
_chemical_formula_sum  Na2La2Ag2Te8
_cell_volume  415.6260135862603
_cell_formula_units_Z  2
loop_
  _symmetry_equiv_pos_site_id
 _symmetry_equiv_pos_as_xyz
 1  'x, y, z'
loop_
 _atom_site_type_symbol
 _atom_site_label
 _atom_site_symmetry_multiplicity
 _atom_site_fract_x
 _atom_site_fract_y
 _atom_site_fract_z
 _atom_site_fract_occupancy
 Ag  Ag1  1  0.50000  0.50000  0.00001  1
 Ag  Ag2  1  0.00000  0.00000  -0.00001  1
 La  La1  1  0.00000  0.50000  0.60265  1
 La  La2  1  0.50000  0.00000  0.39735  1
 Na  Na1  1  0.00000  0.50000  0.13355  1
 Na  Na2  1  0.50000  0.00000  0.86645  1
 Te  Te1  1  0.50000  0.50000  0.27214  1
 Te  Te2  1  0.00000  0.00000  0.72786  1
 Te  Te3  1  0.00000  0.50000  0.44113  1
 Te  Te4  1  0.50000  0.00000  0.55887  1
 Te  Te5  1  0.50000  0.50000  0.72789  1
 Te  Te6  1  0.00000  0.00000  0.27211  1
 Te  Te7  1  0.00000  0.50000  0.90999  1
 Te  Te8  1  0.50000  0.00000  0.09001  1
