CIF file written using JARVIS-Tools package.
data_Bi2MoO6
_symmetry_space_group_name_H-M  'Cmce'
_cell_length_a       8.71964
_cell_length_b       8.71964
_cell_length_c       5.43471
_cell_angle_alpha    90
_cell_angle_beta     90
_cell_angle_gamma    143.951

_symmetry_Int_Tables_number  64
_chemical_formula_structural  Bi2MoO6
_chemical_formula_sum  Bi4Mo2O2
_cell_volume  243.1686826084304
_cell_formula_units_Z  2
loop_
  _symmetry_equiv_pos_site_id
 _symmetry_equiv_pos_as_xyz
 1  'x, y, z'
loop_
 _atom_site_type_symbol
 _atom_site_label
 _atom_site_symmetry_multiplicity
 _atom_site_fract_x
 _atom_site_fract_y
 _atom_site_fract_z
 _atom_site_fract_occupancy
 Bi  Bi1  1  0.17169  0.82831  0.51894  1
 Bi  Bi2  1  0.82831  0.17169  0.48106  1
 Bi  Bi3  1  0.32831  0.67169  0.01894  1
 Bi  Bi4  1  0.67169  0.32831  0.98106  1
 Mo  Mo1  1  0.00000  0.00000  0.00000  1
 Mo  Mo2  1  0.50000  0.50000  0.50000  1
 O  O1  1  0.88905  0.11095  0.07404  1
 O  O2  1  0.61095  0.38905  0.57404  1
 O  O3  1  0.50192  0.99808  0.75000  1
 O  O4  1  0.76882  0.73118  0.25000  1
 O  O5  1  0.99808  0.50192  0.25000  1
 O  O6  1  0.23118  0.26882  0.75000  1
 O  O7  1  0.38905  0.61095  0.42596  1
 O  O8  1  0.00192  0.49808  0.75000  1
 O  O9  1  0.26882  0.23118  0.25000  1
 O  O10  1  0.11095  0.88905  0.92596  1
 O  O11  1  0.73118  0.76882  0.75000  1
 O  O12  1  0.49808  0.00192  0.25000  1
