CIF file written using JARVIS-Tools package.
data_YGaI4
_symmetry_space_group_name_H-M  'I-4'
_cell_length_a       8.15433
_cell_length_b       8.15433
_cell_length_c       8.15433
_cell_angle_alpha    131.956
_cell_angle_beta     131.956
_cell_angle_gamma    70.2981

_symmetry_Int_Tables_number  82
_chemical_formula_structural  YGaI4
_chemical_formula_sum  YGaI4
_cell_volume  293.87923533055823
_cell_formula_units_Z  1
loop_
  _symmetry_equiv_pos_site_id
 _symmetry_equiv_pos_as_xyz
 1  'x, y, z'
loop_
 _atom_site_type_symbol
 _atom_site_label
 _atom_site_symmetry_multiplicity
 _atom_site_fract_x
 _atom_site_fract_y
 _atom_site_fract_z
 _atom_site_fract_occupancy
 Ga  Ga1  1  0.25000  0.75000  0.50000  1
 I  I1  1  0.66906  0.15786  0.06322  1
 I  I2  1  0.84214  0.90537  0.51121  1
 I  I3  1  0.39416  0.33094  0.48879  1
 I  I4  1  0.09463  0.60584  -0.06322  1
 Y  Y1  1  0.50000  0.50000  0.00000  1
