CIF file written using JARVIS-Tools package.
data_Nb3Se5Br7
_symmetry_space_group_name_H-M  'P2_1/m'
_cell_length_a       13.1826
_cell_length_b       7.73643
_cell_length_c       8.43286
_cell_angle_alpha    74.2414
_cell_angle_beta     90
_cell_angle_gamma    90

_symmetry_Int_Tables_number  11
_chemical_formula_structural  Nb3Se5Br7
_chemical_formula_sum  Nb6Se0Br4
_cell_volume  827.7131054298841
_cell_formula_units_Z  2
loop_
  _symmetry_equiv_pos_site_id
 _symmetry_equiv_pos_as_xyz
 1  'x, y, z'
loop_
 _atom_site_type_symbol
 _atom_site_label
 _atom_site_symmetry_multiplicity
 _atom_site_fract_x
 _atom_site_fract_y
 _atom_site_fract_z
 _atom_site_fract_occupancy
 Br  Br1  1  0.75000  0.55160  0.30542  1
 Br  Br2  1  0.25000  0.44840  0.69458  1
 Br  Br3  1  0.38613  0.62786  0.09101  1
 Br  Br4  1  0.61387  0.37214  0.90899  1
 Br  Br5  1  0.88613  0.37214  0.90899  1
 Br  Br6  1  0.11387  0.62786  0.09101  1
 Br  Br7  1  0.38685  0.11589  0.03610  1
 Br  Br8  1  0.88685  0.88411  0.96390  1
 Br  Br9  1  0.11315  0.11589  0.03610  1
 Br  Br10  1  0.25000  0.79661  0.36872  1
 Br  Br11  1  0.75000  0.20339  0.63128  1
 Br  Br12  1  0.25000  0.29994  0.36127  1
 Br  Br13  1  0.75000  0.70006  0.63873  1
 Br  Br14  1  0.61315  0.88411  0.96390  1
 Nb  Nb1  1  0.39318  0.51929  0.44240  1
 Nb  Nb2  1  0.75000  0.10156  0.98732  1
 Nb  Nb3  1  0.25000  0.89844  0.01268  1
 Nb  Nb4  1  0.10682  0.51929  0.44240  1
 Nb  Nb5  1  0.89318  0.48071  0.55760  1
 Nb  Nb6  1  0.60682  0.48071  0.55760  1
 Se  Se1  1  0.47064  0.21728  0.63368  1
 Se  Se2  1  0.97064  0.78272  0.36632  1
 Se  Se3  1  0.02936  0.21728  0.63368  1
 Se  Se4  1  0.97405  0.30255  0.35871  1
 Se  Se5  1  0.52936  0.78272  0.36632  1
 Se  Se6  1  0.47405  0.69745  0.64129  1
 Se  Se7  1  0.52595  0.30255  0.35871  1
 Se  Se8  1  0.02595  0.69745  0.64129  1
 Se  Se9  1  0.75000  0.07777  0.26440  1
 Se  Se10  1  0.25000  0.92223  0.73560  1
