CIF file written using JARVIS-Tools package.
data_GaI
_symmetry_space_group_name_H-M  'Cm'
_cell_length_a       6.16609
_cell_length_b       4.43653
_cell_length_c       6.16412
_cell_angle_alpha    68.8908
_cell_angle_beta     88.5376
_cell_angle_gamma    68.8963

_symmetry_Int_Tables_number  8
_chemical_formula_structural  GaI
_chemical_formula_sum  Ga2I2
_cell_volume  145.70478037472614
_cell_formula_units_Z  2
loop_
  _symmetry_equiv_pos_site_id
 _symmetry_equiv_pos_as_xyz
 1  'x, y, z'
loop_
 _atom_site_type_symbol
 _atom_site_label
 _atom_site_symmetry_multiplicity
 _atom_site_fract_x
 _atom_site_fract_y
 _atom_site_fract_z
 _atom_site_fract_occupancy
 Ga  Ga1  1  0.57189  0.28484  0.84719  1
 Ga  Ga2  1  0.07191  0.28468  0.34726  1
 I  I1  1  0.15896  0.95081  0.92840  1
 I  I2  1  0.65897  0.95099  0.42832  1
