CIF file written using JARVIS-Tools package.
data_Ga2I
_symmetry_space_group_name_H-M  'P6/mmm'
_cell_length_a       5.60839
_cell_length_b       5.60839
_cell_length_c       3.63053
_cell_angle_alpha    90
_cell_angle_beta     90
_cell_angle_gamma    120

_symmetry_Int_Tables_number  191
_chemical_formula_structural  Ga2I
_chemical_formula_sum  Ga2I
_cell_volume  98.89579572069552
_cell_formula_units_Z  1
loop_
  _symmetry_equiv_pos_site_id
 _symmetry_equiv_pos_as_xyz
 1  'x, y, z'
loop_
 _atom_site_type_symbol
 _atom_site_label
 _atom_site_symmetry_multiplicity
 _atom_site_fract_x
 _atom_site_fract_y
 _atom_site_fract_z
 _atom_site_fract_occupancy
 Ga  Ga1  1  0.33333  0.66667  0.00000  1
 Ga  Ga2  1  0.66667  0.33333  0.00000  1
 I  I1  1  0.00000  0.00000  0.00000  1
