CIF file written using JARVIS-Tools package.
data_TlMo2Cl7O2
_symmetry_space_group_name_H-M  'Pmmn'
_cell_length_a       6.9358
_cell_length_b       8.82798
_cell_length_c       9.49941
_cell_angle_alpha    90
_cell_angle_beta     90
_cell_angle_gamma    90

_symmetry_Int_Tables_number  59
_chemical_formula_structural  TlMo2Cl7O2
_chemical_formula_sum  Tl2Mo4Cl4O4
_cell_volume  581.640446164826
_cell_formula_units_Z  2
loop_
  _symmetry_equiv_pos_site_id
 _symmetry_equiv_pos_as_xyz
 1  'x, y, z'
loop_
 _atom_site_type_symbol
 _atom_site_label
 _atom_site_symmetry_multiplicity
 _atom_site_fract_x
 _atom_site_fract_y
 _atom_site_fract_z
 _atom_site_fract_occupancy
 Cl  Cl1  1  0.24160  0.30444  0.69388  1
 Cl  Cl2  1  0.50000  0.59210  0.50000  1
 Cl  Cl3  1  0.75840  0.30444  0.30612  1
 Cl  Cl4  1  0.25840  0.69556  0.19388  1
 Cl  Cl5  1  0.24160  0.30444  0.30612  1
 Cl  Cl6  1  0.26147  0.90128  0.50000  1
 Cl  Cl7  1  0.00000  0.40790  0.00000  1
 Cl  Cl8  1  0.75840  0.30444  0.69388  1
 Cl  Cl9  1  0.73853  0.90128  0.50000  1
 Cl  Cl10  1  0.23853  0.09872  0.00000  1
 Cl  Cl11  1  0.74160  0.69556  0.19388  1
 Cl  Cl12  1  0.76147  0.09872  0.00000  1
 Cl  Cl13  1  0.74160  0.69556  0.80612  1
 Cl  Cl14  1  0.25840  0.69556  0.80612  1
 Mo  Mo1  1  0.00000  0.17731  0.18457  1
 Mo  Mo2  1  0.50000  0.82269  0.31543  1
 Mo  Mo3  1  0.50000  0.82269  0.68457  1
 Mo  Mo4  1  0.00000  0.17731  0.81543  1
 O  O1  1  0.50000  0.99264  0.23996  1
 O  O2  1  0.50000  0.99264  0.76004  1
 O  O3  1  0.00000  0.00736  0.26004  1
 O  O4  1  0.00000  0.00736  0.73996  1
 Tl  Tl1  1  0.00000  0.55477  0.50000  1
 Tl  Tl2  1  0.50000  0.44523  0.00000  1
