CIF file written using JARVIS-Tools package.
data_LiMnPO4
_symmetry_space_group_name_H-M  'Cmcm'
_cell_length_a       5.59066
_cell_length_b       6.2985
_cell_length_c       8.38382
_cell_angle_alpha    90
_cell_angle_beta     90.0004
_cell_angle_gamma    90

_symmetry_Int_Tables_number  63
_chemical_formula_structural  LiMnPO4
_chemical_formula_sum  Li4Mn4P4O6
_cell_volume  295.2175389404583
_cell_formula_units_Z  4
loop_
  _symmetry_equiv_pos_site_id
 _symmetry_equiv_pos_as_xyz
 1  'x, y, z'
loop_
 _atom_site_type_symbol
 _atom_site_label
 _atom_site_symmetry_multiplicity
 _atom_site_fract_x
 _atom_site_fract_y
 _atom_site_fract_z
 _atom_site_fract_occupancy
 Li  Li1  1  0.00001  0.00000  0.50000  1
 Li  Li2  1  0.50000  -0.00000  0.00000  1
 Li  Li3  1  0.00001  0.50000  0.50000  1
 Li  Li4  1  0.50000  0.50000  0.00000  1
 Mn  Mn1  1  0.50001  0.25000  0.68023  1
 Mn  Mn2  1  0.50000  0.75000  0.31977  1
 Mn  Mn3  1  0.00001  0.25000  0.18023  1
 Mn  Mn4  1  0.99998  0.75000  0.81977  1
 O  O1  1  0.77761  0.25000  0.96402  1
 O  O2  1  0.22240  0.25000  0.96402  1
 O  O3  1  0.72240  0.25000  0.46402  1
 O  O4  1  0.27761  0.25000  0.46402  1
 O  O5  1  0.27760  0.75000  0.53598  1
 O  O6  1  1.00000  0.44713  0.74084  1
 O  O7  1  0.22239  0.75000  0.03598  1
 O  O8  1  0.77760  0.75000  0.03598  1
 O  O9  1  1.00000  0.55287  0.25916  1
 O  O10  1  1.00000  0.05287  0.74084  1
 O  O11  1  1.00000  0.94713  0.25916  1
 O  O12  1  0.50000  0.94713  0.75916  1
 O  O13  1  0.72239  0.75000  0.53598  1
 O  O14  1  0.50000  0.05287  0.24084  1
 O  O15  1  0.50000  0.55287  0.75915  1
 O  O16  1  0.50000  0.44713  0.24085  1
 P  P1  1  -0.00000  0.75000  0.14911  1
 P  P2  1  0.50000  0.75000  0.64910  1
 P  P3  1  0.00000  0.25000  0.85089  1
 P  P4  1  0.50000  0.25000  0.35090  1
