CIF file written using JARVIS-Tools package.
data_GaI2
_symmetry_space_group_name_H-M  'R-3m'
_cell_length_a       7.27255
_cell_length_b       4.14396
_cell_length_c       4.14108
_cell_angle_alpha    59.9861
_cell_angle_beta     73.4077
_cell_angle_gamma    73.4511

_symmetry_Int_Tables_number  166
_chemical_formula_structural  GaI2
_chemical_formula_sum  GaI2
_cell_volume  102.03803962943825
_cell_formula_units_Z  1
loop_
  _symmetry_equiv_pos_site_id
 _symmetry_equiv_pos_as_xyz
 1  'x, y, z'
loop_
 _atom_site_type_symbol
 _atom_site_label
 _atom_site_symmetry_multiplicity
 _atom_site_fract_x
 _atom_site_fract_y
 _atom_site_fract_z
 _atom_site_fract_occupancy
 Ga  Ga1  1  0.03585  0.90499  0.06428  1
 I  I1  1  0.29915  0.15093  0.30926  1
 I  I2  1  0.77258  0.65924  0.81912  1
