CIF file written using JARVIS-Tools package.
data_Li2Ce2Si3
_symmetry_space_group_name_H-M  'Cmcm'
_cell_length_a       9.443
_cell_length_b       9.443
_cell_length_c       6.73095
_cell_angle_alpha    90
_cell_angle_beta     90
_cell_angle_gamma    153.014

_symmetry_Int_Tables_number  63
_chemical_formula_structural  Li2Ce2Si3
_chemical_formula_sum  Li4Ce4Si6
_cell_volume  272.3575209031215
_cell_formula_units_Z  2
loop_
  _symmetry_equiv_pos_site_id
 _symmetry_equiv_pos_as_xyz
 1  'x, y, z'
loop_
 _atom_site_type_symbol
 _atom_site_label
 _atom_site_symmetry_multiplicity
 _atom_site_fract_x
 _atom_site_fract_y
 _atom_site_fract_z
 _atom_site_fract_occupancy
 Ce  Ce1  1  0.55087  0.44913  0.25000  1
 Ce  Ce2  1  0.44913  0.55087  0.75000  1
 Ce  Ce3  1  0.34303  0.65697  0.25000  1
 Ce  Ce4  1  0.65697  0.34303  0.75000  1
 Li  Li1  1  0.81113  0.18887  0.56126  1
 Li  Li2  1  0.18887  0.81113  0.43874  1
 Li  Li3  1  0.18887  0.81113  0.06126  1
 Li  Li4  1  0.81113  0.18887  0.93874  1
 Si  Si1  1  0.94075  0.05925  0.07205  1
 Si  Si2  1  0.05925  0.94075  0.92795  1
 Si  Si3  1  0.05925  0.94075  0.57205  1
 Si  Si4  1  0.94075  0.05925  0.42795  1
 Si  Si5  1  0.71997  0.28003  0.25000  1
 Si  Si6  1  0.28003  0.71997  0.75000  1
