CIF file written using JARVIS-Tools package.
data_BaMnO3
_symmetry_space_group_name_H-M  'R-3m'
_cell_length_a       12.346
_cell_length_b       12.346
_cell_length_c       12.346
_cell_angle_alpha    26.7677
_cell_angle_beta     26.7676
_cell_angle_gamma    26.7677

_symmetry_Int_Tables_number  166
_chemical_formula_structural  BaMnO3
_chemical_formula_sum  Ba5Mn5O5
_cell_volume  336.57230549613365
_cell_formula_units_Z  5
loop_
  _symmetry_equiv_pos_site_id
 _symmetry_equiv_pos_as_xyz
 1  'x, y, z'
loop_
 _atom_site_type_symbol
 _atom_site_label
 _atom_site_symmetry_multiplicity
 _atom_site_fract_x
 _atom_site_fract_y
 _atom_site_fract_z
 _atom_site_fract_occupancy
 Ba  Ba1  1  0.73559  0.73559  0.73559  1
 Ba  Ba2  1  0.86593  0.86593  0.86593  1
 Ba  Ba3  1  0.00000  0.00000  0.00000  1
 Ba  Ba4  1  0.13407  0.13407  0.13407  1
 Ba  Ba5  1  0.26441  0.26441  0.26441  1
 Mn  Mn1  1  0.56922  0.56922  0.56922  1
 Mn  Mn2  1  0.63898  0.63898  0.63898  1
 Mn  Mn3  1  0.36102  0.36102  0.36102  1
 Mn  Mn4  1  0.43078  0.43078  0.43078  1
 Mn  Mn5  1  0.50000  0.50000  0.50000  1
 O  O1  1  0.83301  0.38459  0.38459  1
 O  O2  1  0.38459  0.38459  0.83301  1
 O  O3  1  0.75026  0.75026  0.30804  1
 O  O4  1  0.00000  0.50000  0.50000  1
 O  O5  1  0.50000  0.00000  0.50000  1
 O  O6  1  0.50000  0.50000  -0.00000  1
 O  O7  1  0.69196  0.24974  0.24974  1
 O  O8  1  0.61541  0.61541  0.16699  1
 O  O9  1  0.16699  0.61541  0.61541  1
 O  O10  1  0.24974  0.24974  0.69196  1
 O  O11  1  0.61541  0.16699  0.61541  1
 O  O12  1  0.24974  0.69196  0.24974  1
 O  O13  1  0.75026  0.30804  0.75026  1
 O  O14  1  0.38459  0.83301  0.38459  1
 O  O15  1  0.30804  0.75026  0.75026  1
