CIF file written using JARVIS-Tools package.
data_Li2NiO3
_symmetry_space_group_name_H-M  'C2/c'
_cell_length_a       4.88579
_cell_length_b       4.8858
_cell_length_c       9.49321
_cell_angle_alpha    85.041
_cell_angle_beta     85.041
_cell_angle_gamma    120.034

_symmetry_Int_Tables_number  15
_chemical_formula_structural  Li2NiO3
_chemical_formula_sum  Li8Ni4O2
_cell_volume  193.22704026356968
_cell_formula_units_Z  4
loop_
  _symmetry_equiv_pos_site_id
 _symmetry_equiv_pos_as_xyz
 1  'x, y, z'
loop_
 _atom_site_type_symbol
 _atom_site_label
 _atom_site_symmetry_multiplicity
 _atom_site_fract_x
 _atom_site_fract_y
 _atom_site_fract_z
 _atom_site_fract_occupancy
 Li  Li1  1  0.83721  0.67351  0.50021  1
 Li  Li2  1  0.67351  0.83721  0.00021  1
 Li  Li3  1  0.50000  -0.00000  0.50000  1
 Li  Li4  1  0.08405  0.91595  0.75000  1
 Li  Li5  1  0.91595  0.08405  0.25000  1
 Li  Li6  1  0.32649  0.16279  0.99979  1
 Li  Li7  1  -0.00000  0.50000  0.00000  1
 Li  Li8  1  0.16279  0.32649  0.49979  1
 Ni  Ni1  1  0.75032  0.24968  0.75000  1
 Ni  Ni2  1  0.41716  0.58284  0.75000  1
 Ni  Ni3  1  0.58284  0.41716  0.25000  1
 Ni  Ni4  1  0.24968  0.75032  0.25000  1
 O  O1  1  0.52261  0.69056  0.36204  1
 O  O2  1  0.40219  0.87856  0.86216  1
 O  O3  1  0.23369  0.04611  0.36354  1
 O  O4  1  0.59781  0.12144  0.13784  1
 O  O5  1  0.47739  0.30944  0.63796  1
 O  O6  1  0.87856  0.40219  0.36216  1
 O  O7  1  0.69056  0.52261  0.86204  1
 O  O8  1  0.04611  0.23369  0.86354  1
 O  O9  1  0.95389  0.76631  0.13646  1
 O  O10  1  0.30944  0.47739  0.13796  1
 O  O11  1  0.12144  0.59781  0.63784  1
 O  O12  1  0.76631  0.95389  0.63646  1
