CIF file written using JARVIS-Tools package.
data_Mg2BO4
_symmetry_space_group_name_H-M  'Pnma'
_cell_length_a       3.09272
_cell_length_b       9.35392
_cell_length_c       9.58733
_cell_angle_alpha    90
_cell_angle_beta     90
_cell_angle_gamma    90

_symmetry_Int_Tables_number  62
_chemical_formula_structural  Mg2BO4
_chemical_formula_sum  Mg8B4O6
_cell_volume  277.35276355543334
_cell_formula_units_Z  4
loop_
  _symmetry_equiv_pos_site_id
 _symmetry_equiv_pos_as_xyz
 1  'x, y, z'
loop_
 _atom_site_type_symbol
 _atom_site_label
 _atom_site_symmetry_multiplicity
 _atom_site_fract_x
 _atom_site_fract_y
 _atom_site_fract_z
 _atom_site_fract_occupancy
 B  B1  1  0.75000  0.87074  0.33256  1
 B  B2  1  0.25000  0.37074  0.16744  1
 B  B3  1  0.75000  0.62926  0.83256  1
 B  B4  1  0.25000  0.12926  0.66744  1
 Mg  Mg1  1  0.25000  0.43474  0.63794  1
 Mg  Mg2  1  0.75000  0.56526  0.36206  1
 Mg  Mg3  1  0.25000  0.69658  0.10700  1
 Mg  Mg4  1  0.25000  0.06526  0.13794  1
 Mg  Mg5  1  0.25000  0.80342  0.60700  1
 Mg  Mg6  1  0.75000  0.19658  0.39300  1
 Mg  Mg7  1  0.75000  0.30342  0.89300  1
 Mg  Mg8  1  0.75000  0.93474  0.86206  1
 O  O1  1  0.75000  0.64900  0.97535  1
 O  O2  1  0.25000  0.25153  0.25279  1
 O  O3  1  0.75000  0.10571  0.99706  1
 O  O4  1  0.75000  0.75153  0.24721  1
 O  O5  1  0.25000  0.24847  0.75279  1
 O  O6  1  0.25000  0.35100  0.02465  1
 O  O7  1  0.75000  0.74847  0.74721  1
 O  O8  1  0.25000  0.60571  0.50294  1
 O  O9  1  0.25000  0.50666  0.22267  1
 O  O10  1  0.75000  0.49334  0.77733  1
 O  O11  1  0.75000  0.00666  0.27733  1
 O  O12  1  0.25000  0.99334  0.72267  1
 O  O13  1  0.75000  0.85100  0.47535  1
 O  O14  1  0.75000  0.39429  0.49706  1
 O  O15  1  0.25000  0.14900  0.52465  1
 O  O16  1  0.25000  0.89429  0.00294  1
