CIF file written using JARVIS-Tools package.
data_LiCoPO4
_symmetry_space_group_name_H-M  'P-1'
_cell_length_a       5.21473
_cell_length_b       8.78944
_cell_length_c       5.07715
_cell_angle_alpha    119.24
_cell_angle_beta     60.284
_cell_angle_gamma    117.706

_symmetry_Int_Tables_number  2
_chemical_formula_structural  LiCoPO4
_chemical_formula_sum  Li2Co2P2O8
_cell_volume  168.56048397023932
_cell_formula_units_Z  2
loop_
  _symmetry_equiv_pos_site_id
 _symmetry_equiv_pos_as_xyz
 1  'x, y, z'
loop_
 _atom_site_type_symbol
 _atom_site_label
 _atom_site_symmetry_multiplicity
 _atom_site_fract_x
 _atom_site_fract_y
 _atom_site_fract_z
 _atom_site_fract_occupancy
 Co  Co1  1  0.01507  0.07743  0.08668  1
 Co  Co2  1  0.56043  0.64909  0.48882  1
 Li  Li1  1  0.13760  0.47756  0.05025  1
 Li  Li2  1  0.43790  0.24894  0.52526  1
 O  O1  1  0.13949  0.54731  0.47208  1
 O  O2  1  0.00701  0.20642  0.85088  1
 O  O3  1  0.43601  0.17920  0.10344  1
 O  O4  1  0.62395  0.90385  0.69025  1
 O  O5  1  0.86038  0.56886  0.05647  1
 O  O6  1  0.56850  0.52009  0.72461  1
 O  O7  1  0.71514  0.15766  0.51904  1
 O  O8  1  0.95153  0.82266  0.88524  1
 P  P1  1  0.88382  0.61905  0.78927  1
 P  P2  1  0.69168  0.10746  0.78623  1
