CIF file written using JARVIS-Tools package.
data_AlH6C5ClO4
_symmetry_space_group_name_H-M  'P1'
_cell_length_a       4.83868
_cell_length_b       5.92223
_cell_length_c       6.76588
_cell_angle_alpha    88.546
_cell_angle_beta     75.4572
_cell_angle_gamma    87.031

_symmetry_Int_Tables_number  1
_chemical_formula_structural  AlH6C5ClO4
_chemical_formula_sum  AlH6C5ClO4
_cell_volume  187.4024376195332
_cell_formula_units_Z  1
loop_
  _symmetry_equiv_pos_site_id
 _symmetry_equiv_pos_as_xyz
 1  'x, y, z'
loop_
 _atom_site_type_symbol
 _atom_site_label
 _atom_site_symmetry_multiplicity
 _atom_site_fract_x
 _atom_site_fract_y
 _atom_site_fract_z
 _atom_site_fract_occupancy
 Al  Al1  1  0.07465  0.68794  0.44023  1
 C  C1  1  0.44167  0.24662  0.98821  1
 C  C2  1  0.19431  0.32440  0.15988  1
 C  C3  1  0.53461  0.92824  0.48804  1
 C  C4  1  0.57634  0.10107  0.63285  1
 C  C5  1  0.38223  0.06405  0.85029  1
 Cl  Cl1  1  0.01594  0.55569  0.74321  1
 H  H1  1  0.61986  0.19449  0.05619  1
 H  H2  1  0.15727  0.07637  0.84455  1
 H  H3  1  0.42351  0.89366  0.90839  1
 H  H4  1  0.80202  0.10154  0.63475  1
 H  H5  1  0.51741  0.26718  0.57497  1
 H  H6  1  0.51276  0.39944  0.89894  1
 O  O1  1  0.96786  0.22956  0.22032  1
 O  O2  1  0.72863  0.77843  0.40918  1
 O  O3  1  0.25206  0.51500  0.24120  1
 O  O4  1  0.28880  0.92613  0.44822  1
