CIF file written using JARVIS-Tools package.
data_InGaO4
_symmetry_space_group_name_H-M  'Cmmm'
_cell_length_a       4.78359
_cell_length_b       4.78359
_cell_length_c       3.21741
_cell_angle_alpha    90
_cell_angle_beta     90
_cell_angle_gamma    88.3659

_symmetry_Int_Tables_number  65
_chemical_formula_structural  InGaO4
_chemical_formula_sum  InGaO4
_cell_volume  73.59314867519888
_cell_formula_units_Z  1
loop_
  _symmetry_equiv_pos_site_id
 _symmetry_equiv_pos_as_xyz
 1  'x, y, z'
loop_
 _atom_site_type_symbol
 _atom_site_label
 _atom_site_symmetry_multiplicity
 _atom_site_fract_x
 _atom_site_fract_y
 _atom_site_fract_z
 _atom_site_fract_occupancy
 Ga  Ga1  1  0.50000  0.50000  0.50000  1
 In  In1  1  0.00000  0.00000  0.00000  1
 O  O1  1  0.68218  0.68218  0.00000  1
 O  O2  1  0.78796  0.21204  0.50000  1
 O  O3  1  0.21204  0.78796  0.50000  1
 O  O4  1  0.31782  0.31782  0.00000  1
