CIF file written using JARVIS-Tools package.
data_LuCo4Ge2
_symmetry_space_group_name_H-M  'P4_2/mnm'
_cell_length_a       7.1838
_cell_length_b       7.1838
_cell_length_c       3.67303
_cell_angle_alpha    90
_cell_angle_beta     90
_cell_angle_gamma    90

_symmetry_Int_Tables_number  136
_chemical_formula_structural  LuCo4Ge2
_chemical_formula_sum  Lu2Co8Ge4
_cell_volume  189.55382974316979
_cell_formula_units_Z  2
loop_
  _symmetry_equiv_pos_site_id
 _symmetry_equiv_pos_as_xyz
 1  'x, y, z'
loop_
 _atom_site_type_symbol
 _atom_site_label
 _atom_site_symmetry_multiplicity
 _atom_site_fract_x
 _atom_site_fract_y
 _atom_site_fract_z
 _atom_site_fract_occupancy
 Co  Co1  1  0.58043  0.14850  0.00000  1
 Co  Co2  1  0.41957  0.85150  0.00000  1
 Co  Co3  1  0.64850  0.91957  0.50000  1
 Co  Co4  1  0.08043  0.35150  0.50000  1
 Co  Co5  1  0.35150  0.08043  0.50000  1
 Co  Co6  1  0.91957  0.64850  0.50000  1
 Co  Co7  1  0.14850  0.58043  0.00000  1
 Co  Co8  1  0.85150  0.41957  0.00000  1
 Ge  Ge1  1  0.27783  0.27783  0.00000  1
 Ge  Ge2  1  0.72217  0.72217  0.00000  1
 Ge  Ge3  1  0.77783  0.22217  0.50000  1
 Ge  Ge4  1  0.22217  0.77783  0.50000  1
 Lu  Lu1  1  0.00000  0.00000  0.00000  1
 Lu  Lu2  1  0.50000  0.50000  0.50000  1
