CIF file written using JARVIS-Tools package.
data_TiH22C12O4
_symmetry_space_group_name_H-M  'P1'
_cell_length_a       4.98912
_cell_length_b       7.14041
_cell_length_c       10.1515
_cell_angle_alpha    74.0052
_cell_angle_beta     80.8857
_cell_angle_gamma    92.5043

_symmetry_Int_Tables_number  1
_chemical_formula_structural  TiH22C12O4
_chemical_formula_sum  TiH22C2O4
_cell_volume  341.7960201564969
_cell_formula_units_Z  1
loop_
  _symmetry_equiv_pos_site_id
 _symmetry_equiv_pos_as_xyz
 1  'x, y, z'
loop_
 _atom_site_type_symbol
 _atom_site_label
 _atom_site_symmetry_multiplicity
 _atom_site_fract_x
 _atom_site_fract_y
 _atom_site_fract_z
 _atom_site_fract_occupancy
 C  C1  1  0.83196  0.54765  0.47460  1
 C  C2  1  0.31380  0.12064  0.28863  1
 C  C3  1  0.73714  0.52961  0.24261  1
 C  C4  1  0.86799  0.69027  0.56103  1
 C  C5  1  0.79522  0.06102  0.00624  1
 C  C6  1  0.84808  0.65860  0.31839  1
 C  C7  1  0.65909  0.00980  0.59264  1
 C  C8  1  0.61355  0.80162  0.57923  1
 C  C9  1  0.95793  -0.02059  0.78351  1
 C  C10  1  0.68055  0.02019  0.73962  1
 C  C11  1  0.93778  0.91786  0.94378  1
 C  C12  1  0.46007  0.47679  0.94369  1
 H  H1  1  0.46438  0.71245  0.66917  1
 H  H2  1  0.52116  0.91546  0.81439  1
 H  H3  1  0.83988  0.08820  0.51698  1
 H  H4  1  0.51466  0.81338  0.48838  1
 H  H5  1  0.48492  0.08936  0.56091  1
 H  H6  1  0.04432  0.86045  0.74618  1
 H  H7  1  0.04718  0.79470  0.50854  1
 H  H8  1  0.26889  0.18840  0.37353  1
 H  H9  1  0.39826  0.97967  0.32340  1
 H  H10  1  0.27839  0.54491  0.97717  1
 H  H11  1  0.41398  0.39048  0.87429  1
 H  H12  1  0.91246  0.60774  0.66295  1
 H  H13  1  0.12771  0.09890  0.24765  1
 H  H14  1  0.63294  0.46043  0.51561  1
 H  H15  1  -0.01074  0.44373  0.48326  1
 H  H16  1  0.06271  0.70642  0.27057  1
 H  H17  1  0.63008  0.58911  0.89044  1
 H  H18  1  0.63219  0.16585  0.74903  1
 H  H19  1  0.73005  0.78647  0.30662  1
 H  H20  1  0.10404  0.10995  0.73636  1
 H  H21  1  0.81753  0.77577  0.98777  1
 H  H22  1  0.14139  0.90849  0.97214  1
 O  O1  1  0.92870  0.21529  0.01526  1
 O  O2  1  0.50222  0.54039  0.20720  1
 O  O3  1  0.53826  0.04138  0.05204  1
 O  O4  1  0.87949  0.39528  0.21098  1
 Ti  Ti1  1  0.58790  0.29968  0.11902  1
