CIF file written using JARVIS-Tools package.
data_GaI
_symmetry_space_group_name_H-M  'Fm-3m'
_cell_length_a       4.662
_cell_length_b       4.662
_cell_length_c       6.60592
_cell_angle_alpha    90
_cell_angle_beta     90
_cell_angle_gamma    90

_symmetry_Int_Tables_number  225
_chemical_formula_structural  GaI
_chemical_formula_sum  Ga2I2
_cell_volume  143.57451583282713
_cell_formula_units_Z  2
loop_
  _symmetry_equiv_pos_site_id
 _symmetry_equiv_pos_as_xyz
 1  'x, y, z'
loop_
 _atom_site_type_symbol
 _atom_site_label
 _atom_site_symmetry_multiplicity
 _atom_site_fract_x
 _atom_site_fract_y
 _atom_site_fract_z
 _atom_site_fract_occupancy
 Ga  Ga1  1  0.00000  0.00000  0.25018  1
 Ga  Ga2  1  0.50000  0.50000  0.74982  1
 I  I1  1  0.00000  0.00000  0.75007  1
 I  I2  1  0.50000  0.50000  0.24993  1
