CIF file written using JARVIS-Tools package.
data_LiSO4
_symmetry_space_group_name_H-M  'P6_3'
_cell_length_a       5.08669
_cell_length_b       5.0867
_cell_length_c       9.02695
_cell_angle_alpha    90
_cell_angle_beta     90
_cell_angle_gamma    120

_symmetry_Int_Tables_number  173
_chemical_formula_structural  LiSO4
_chemical_formula_sum  Li2S2O8
_cell_volume  202.27532920762698
_cell_formula_units_Z  2
loop_
  _symmetry_equiv_pos_site_id
 _symmetry_equiv_pos_as_xyz
 1  'x, y, z'
loop_
 _atom_site_type_symbol
 _atom_site_label
 _atom_site_symmetry_multiplicity
 _atom_site_fract_x
 _atom_site_fract_y
 _atom_site_fract_z
 _atom_site_fract_occupancy
 Li  Li1  1  0.66667  0.33333  0.17169  1
 Li  Li2  1  0.33333  0.66667  0.67169  1
 O  O1  1  0.94998  0.35078  0.74516  1
 O  O2  1  0.40080  0.05002  0.74516  1
 O  O3  1  0.05002  0.64922  0.24516  1
 O  O4  1  0.64922  0.59920  0.74516  1
 O  O5  1  0.59920  0.94998  0.24516  1
 O  O6  1  0.35078  0.40080  0.24516  1
 O  O7  1  0.66667  0.33333  0.96178  1
 O  O8  1  0.33333  0.66667  0.46178  1
 S  S1  1  0.66667  0.33333  0.79796  1
 S  S2  1  0.33333  0.66667  0.29796  1
