CIF file written using JARVIS-Tools package.
data_Hg3Se2F2
_symmetry_space_group_name_H-M  'I2_13'
_cell_length_a       7.33974
_cell_length_b       7.33974
_cell_length_c       7.33973
_cell_angle_alpha    109.471
_cell_angle_beta     109.471
_cell_angle_gamma    109.471

_symmetry_Int_Tables_number  199
_chemical_formula_structural  Hg3Se2F2
_chemical_formula_sum  Hg6Se4F4
_cell_volume  304.38218763768015
_cell_formula_units_Z  2
loop_
  _symmetry_equiv_pos_site_id
 _symmetry_equiv_pos_as_xyz
 1  'x, y, z'
loop_
 _atom_site_type_symbol
 _atom_site_label
 _atom_site_symmetry_multiplicity
 _atom_site_fract_x
 _atom_site_fract_y
 _atom_site_fract_z
 _atom_site_fract_occupancy
 F  F1  1  0.45202  0.45202  0.45202  1
 F  F2  1  0.04798  0.50000  0.00000  1
 F  F3  1  0.00000  0.04798  0.50000  1
 F  F4  1  0.50000  0.00000  0.04798  1
 Hg  Hg1  1  0.16793  0.91793  0.25000  1
 Hg  Hg2  1  0.33207  0.58207  0.75000  1
 Hg  Hg3  1  0.91793  0.25000  0.16793  1
 Hg  Hg4  1  0.58207  0.75000  0.33207  1
 Hg  Hg5  1  0.25000  0.16793  0.91793  1
 Hg  Hg6  1  0.75000  0.33207  0.58207  1
 Se  Se1  1  0.90965  0.90965  0.90965  1
 Se  Se2  1  0.59035  0.50000  0.00000  1
 Se  Se3  1  0.00000  0.59035  0.50000  1
 Se  Se4  1  0.50000  0.00000  0.59035  1
