CIF file written using JARVIS-Tools package.
data_ZnH4C4O4
_symmetry_space_group_name_H-M  'P1'
_cell_length_a       4.03062
_cell_length_b       4.79874
_cell_length_c       6.76238
_cell_angle_alpha    87.6264
_cell_angle_beta     90.904
_cell_angle_gamma    80.4782

_symmetry_Int_Tables_number  1
_chemical_formula_structural  ZnH4C4O4
_chemical_formula_sum  ZnH4C4O4
_cell_volume  128.8508232966155
_cell_formula_units_Z  1
loop_
  _symmetry_equiv_pos_site_id
 _symmetry_equiv_pos_as_xyz
 1  'x, y, z'
loop_
 _atom_site_type_symbol
 _atom_site_label
 _atom_site_symmetry_multiplicity
 _atom_site_fract_x
 _atom_site_fract_y
 _atom_site_fract_z
 _atom_site_fract_occupancy
 C  C1  1  0.26535  0.06476  0.45727  1
 C  C2  1  0.11105  0.12405  0.25172  1
 C  C3  1  0.00869  0.43962  0.20266  1
 C  C4  1  0.88153  0.51547  0.99169  1
 H  H1  1  0.30255  0.03212  0.14757  1
 H  H2  1  0.89633  0.01476  0.23683  1
 H  H3  1  0.22591  0.54840  0.22335  1
 H  H4  1  0.81835  0.53446  0.30550  1
 O  O1  1  0.17379  0.87748  0.57530  1
 O  O2  1  0.50151  0.19884  0.50513  1
 O  O3  1  0.72862  0.77276  0.96353  1
 O  O4  1  -0.06100  0.34291  0.85547  1
 Zn  Zn1  1  0.76573  0.01383  0.73381  1
