CIF file written using JARVIS-Tools package.
data_La3IrI3
_symmetry_space_group_name_H-M  'I4_132'
_cell_length_a       10.9171
_cell_length_b       10.9171
_cell_length_c       10.9171
_cell_angle_alpha    109.471
_cell_angle_beta     109.471
_cell_angle_gamma    109.471

_symmetry_Int_Tables_number  214
_chemical_formula_structural  La3IrI3
_chemical_formula_sum  La2Ir4I2
_cell_volume  1001.6177599281581
_cell_formula_units_Z  4
loop_
  _symmetry_equiv_pos_site_id
 _symmetry_equiv_pos_as_xyz
 1  'x, y, z'
loop_
 _atom_site_type_symbol
 _atom_site_label
 _atom_site_symmetry_multiplicity
 _atom_site_fract_x
 _atom_site_fract_y
 _atom_site_fract_z
 _atom_site_fract_occupancy
 I  I1  1  0.51204  0.76204  0.52408  1
 I  I2  1  0.73796  0.98796  0.97592  1
 I  I3  1  0.76204  0.73796  0.25000  1
 I  I4  1  0.51204  0.25000  0.98796  1
 I  I5  1  0.76204  0.52408  0.51204  1
 I  I6  1  0.25000  0.98796  0.51204  1
 I  I7  1  0.98796  0.97592  0.73796  1
 I  I8  1  0.73796  0.25000  0.76204  1
 I  I9  1  0.97592  0.73796  0.98796  1
 I  I10  1  0.52408  0.51204  0.76204  1
 I  I11  1  0.25000  0.76204  0.73796  1
 I  I12  1  0.98796  0.51204  0.25000  1
 Ir  Ir1  1  0.25000  0.25000  0.25000  1
 Ir  Ir2  1  0.50000  0.00000  0.25000  1
 Ir  Ir3  1  0.00000  0.25000  0.50000  1
 Ir  Ir4  1  0.25000  0.50000  -0.00000  1
 La  La1  1  0.22974  0.27026  0.75000  1
 La  La2  1  0.27026  0.02026  0.04052  1
 La  La3  1  0.02026  0.47974  0.75000  1
 La  La4  1  0.47974  0.22974  0.45948  1
 La  La5  1  0.47974  0.75000  0.02026  1
 La  La6  1  0.02026  0.04052  0.27026  1
 La  La7  1  0.04052  0.27026  0.02026  1
 La  La8  1  0.27026  0.75000  0.22974  1
 La  La9  1  0.22974  0.45948  0.47974  1
 La  La10  1  0.75000  0.02026  0.47974  1
 La  La11  1  0.75000  0.22974  0.27026  1
 La  La12  1  0.45948  0.47974  0.22974  1
