CIF file written using JARVIS-Tools package.
data_InGaO2
_symmetry_space_group_name_H-M  'R3m'
_cell_length_a       6.92793
_cell_length_b       6.92793
_cell_length_c       6.92793
_cell_angle_alpha    27.7712
_cell_angle_beta     27.7712
_cell_angle_gamma    27.7711

_symmetry_Int_Tables_number  160
_chemical_formula_structural  InGaO2
_chemical_formula_sum  InGaO2
_cell_volume  63.740361091352106
_cell_formula_units_Z  1
loop_
  _symmetry_equiv_pos_site_id
 _symmetry_equiv_pos_as_xyz
 1  'x, y, z'
loop_
 _atom_site_type_symbol
 _atom_site_label
 _atom_site_symmetry_multiplicity
 _atom_site_fract_x
 _atom_site_fract_y
 _atom_site_fract_z
 _atom_site_fract_occupancy
 Ga  Ga1  1  0.82600  0.82600  0.82600  1
 In  In1  1  0.00024  0.00024  0.00024  1
 O  O1  1  0.72963  0.72963  0.72963  1
 O  O2  1  0.28513  0.28513  0.28513  1
