CIF file written using JARVIS-Tools package.
data_Li2VO2F
_symmetry_space_group_name_H-M  'Cm'
_cell_length_a       5.15951
_cell_length_b       7.17213
_cell_length_c       6.37213
_cell_angle_alpha    110.892
_cell_angle_beta     76.1134
_cell_angle_gamma    86.41

_symmetry_Int_Tables_number  8
_chemical_formula_structural  Li2VO2F
_chemical_formula_sum  Li8V4O8F4
_cell_volume  210.982069577764
_cell_formula_units_Z  4
loop_
  _symmetry_equiv_pos_site_id
 _symmetry_equiv_pos_as_xyz
 1  'x, y, z'
loop_
 _atom_site_type_symbol
 _atom_site_label
 _atom_site_symmetry_multiplicity
 _atom_site_fract_x
 _atom_site_fract_y
 _atom_site_fract_z
 _atom_site_fract_occupancy
 F  F1  1  0.43295  0.59425  0.24450  1
 F  F2  1  0.08259  0.91267  0.25723  1
 F  F3  1  0.93295  0.09424  0.74450  1
 F  F4  1  0.58259  0.41267  0.75724  1
 Li  Li1  1  0.33764  0.67221  0.99320  1
 Li  Li2  1  0.83764  0.17221  0.49320  1
 Li  Li3  1  0.16889  0.83042  0.50809  1
 Li  Li4  1  0.54340  0.89545  0.75249  1
 Li  Li5  1  0.66889  0.33042  0.00809  1
 Li  Li6  1  0.99871  0.00183  0.99503  1
 Li  Li7  1  0.49871  0.50183  0.49503  1
 Li  Li8  1  0.04340  0.39545  0.25249  1
 O  O1  1  0.67031  0.83171  0.00682  1
 O  O2  1  0.17031  0.33172  0.50682  1
 O  O3  1  0.23412  0.74236  0.74936  1
 O  O4  1  0.73411  0.24236  0.24936  1
 O  O5  1  0.99585  0.50324  0.98945  1
 O  O6  1  0.33584  0.16616  0.00355  1
 O  O7  1  0.83584  0.66616  0.50355  1
 O  O8  1  0.49585  0.00324  0.48945  1
 V  V1  1  0.25491  0.24739  0.76019  1
 V  V2  1  0.94479  0.60231  0.74010  1
 V  V3  1  0.75491  0.74739  0.26019  1
 V  V4  1  0.44480  0.10231  0.24010  1
