CIF file written using JARVIS-Tools package.
data_ZnH10C7O4
_symmetry_space_group_name_H-M  'P1'
_cell_length_a       4.68881
_cell_length_b       4.62279
_cell_length_c       10.0059
_cell_angle_alpha    99.4637
_cell_angle_beta     92.5296
_cell_angle_gamma    116.76

_symmetry_Int_Tables_number  1
_chemical_formula_structural  ZnH10C7O4
_chemical_formula_sum  ZnH0C7O4
_cell_volume  189.29154248517168
_cell_formula_units_Z  1
loop_
  _symmetry_equiv_pos_site_id
 _symmetry_equiv_pos_as_xyz
 1  'x, y, z'
loop_
 _atom_site_type_symbol
 _atom_site_label
 _atom_site_symmetry_multiplicity
 _atom_site_fract_x
 _atom_site_fract_y
 _atom_site_fract_z
 _atom_site_fract_occupancy
 C  C1  1  0.91358  0.16376  0.96734  1
 C  C2  1  0.83037  0.11314  0.21281  1
 C  C3  1  0.10412  0.44335  0.29001  1
 C  C4  1  0.02612  0.56969  0.42758  1
 C  C5  1  0.31407  0.88869  0.50608  1
 C  C6  1  0.24080  0.04244  0.63711  1
 C  C7  1  0.90683  0.97098  0.07632  1
 H  H1  1  0.40251  0.07484  0.44237  1
 H  H2  1  0.81736  0.61566  0.41082  1
 H  H3  1  0.72517  0.71204  0.04042  1
 H  H4  1  0.32240  0.41297  0.30732  1
 H  H5  1  0.16473  0.62974  0.22614  1
 H  H6  1  0.61006  0.13838  0.19364  1
 H  H7  1  0.77255  -0.07132  0.27757  1
 H  H8  1  0.95672  0.38187  0.49063  1
 H  H9  1  0.14445  0.98071  0.09241  1
 H  H10  1  0.51191  0.83345  0.53415  1
 O  O1  1  0.08992  -0.13462  0.72079  1
 O  O2  1  0.17249  0.43564  0.97298  1
 O  O3  1  0.33234  0.35327  0.65523  1
 O  O4  1  0.67297  0.06790  0.87726  1
 Zn  Zn1  1  0.27756  0.62873  0.81203  1
