CIF file written using JARVIS-Tools package.
data_Ge2Cl
_symmetry_space_group_name_H-M  'Pmm2'
_cell_length_a       5.84319
_cell_length_b       3.02171
_cell_length_c       4.34618
_cell_angle_alpha    90
_cell_angle_beta     90.0118
_cell_angle_gamma    90

_symmetry_Int_Tables_number  25
_chemical_formula_structural  Ge2Cl
_chemical_formula_sum  Ge2Cl
_cell_volume  76.73788431151219
_cell_formula_units_Z  1
loop_
  _symmetry_equiv_pos_site_id
 _symmetry_equiv_pos_as_xyz
 1  'x, y, z'
loop_
 _atom_site_type_symbol
 _atom_site_label
 _atom_site_symmetry_multiplicity
 _atom_site_fract_x
 _atom_site_fract_y
 _atom_site_fract_z
 _atom_site_fract_occupancy
 Cl  Cl1  1  0.46253  0.00000  -0.03283  1
 Ge  Ge1  1  -0.14719  0.00000  -0.03360  1
 Ge  Ge2  1  0.08466  0.00000  0.46643  1
