CIF file written using JARVIS-Tools package.
data_AlH8C5ClO5
_symmetry_space_group_name_H-M  'P1'
_cell_length_a       5.28042
_cell_length_b       5.49538
_cell_length_c       7.18594
_cell_angle_alpha    82.3757
_cell_angle_beta     86.6907
_cell_angle_gamma    75.3973

_symmetry_Int_Tables_number  1
_chemical_formula_structural  AlH8C5ClO5
_chemical_formula_sum  AlH8C5ClO5
_cell_volume  199.93762476470755
_cell_formula_units_Z  1
loop_
  _symmetry_equiv_pos_site_id
 _symmetry_equiv_pos_as_xyz
 1  'x, y, z'
loop_
 _atom_site_type_symbol
 _atom_site_label
 _atom_site_symmetry_multiplicity
 _atom_site_fract_x
 _atom_site_fract_y
 _atom_site_fract_z
 _atom_site_fract_occupancy
 Al  Al1  1  0.17905  0.67972  0.39567  1
 C  C1  1  0.47954  0.28023  0.95587  1
 C  C2  1  0.42558  0.90176  0.55509  1
 C  C3  1  0.29107  0.37621  0.11082  1
 C  C4  1  0.41367  0.06348  0.87068  1
 C  C5  1  0.55406  0.02899  0.67924  1
 Cl  Cl1  1  0.94542  0.43368  0.54296  1
 H  H1  1  0.68205  0.23780  0.00163  1
 H  H2  1  0.74266  0.95446  0.30295  1
 H  H3  1  0.97580  0.10946  0.22257  1
 H  H4  1  0.20151  0.10892  0.85232  1
 H  H5  1  0.46653  0.88591  0.96647  1
 H  H6  1  0.75790  0.91552  0.69651  1
 H  H7  1  0.56828  0.21087  0.60100  1
 H  H8  1  0.45920  0.44657  0.84819  1
 O  O1  1  0.45546  0.92057  0.37562  1
 O  O2  1  0.27149  0.76098  0.62337  1
 O  O3  1  0.37870  0.50635  0.22362  1
 O  O4  1  0.06322  0.34877  0.12336  1
 O  O5  1  0.93613  0.94285  0.27977  1
