CIF file written using JARVIS-Tools package.
data_LiVSiO4
_symmetry_space_group_name_H-M  'Pna2_1'
_cell_length_a       4.98132
_cell_length_b       10.3808
_cell_length_c       6.71422
_cell_angle_alpha    90.0003
_cell_angle_beta     90
_cell_angle_gamma    90

_symmetry_Int_Tables_number  33
_chemical_formula_structural  LiVSiO4
_chemical_formula_sum  Li4V4Si4O6
_cell_volume  347.1913137391678
_cell_formula_units_Z  4
loop_
  _symmetry_equiv_pos_site_id
 _symmetry_equiv_pos_as_xyz
 1  'x, y, z'
loop_
 _atom_site_type_symbol
 _atom_site_label
 _atom_site_symmetry_multiplicity
 _atom_site_fract_x
 _atom_site_fract_y
 _atom_site_fract_z
 _atom_site_fract_occupancy
 Li  Li1  1  0.24255  0.15307  0.50212  1
 Li  Li2  1  0.74255  0.34693  0.00212  1
 Li  Li3  1  0.24255  0.65307  0.99788  1
 Li  Li4  1  0.74255  0.84693  0.49788  1
 O  O1  1  0.18422  0.06301  0.24089  1
 O  O2  1  0.61957  0.66530  0.54835  1
 O  O3  1  0.18422  0.56301  0.25911  1
 O  O4  1  0.68422  0.93699  0.75911  1
 O  O5  1  0.07530  0.11981  0.76407  1
 O  O6  1  0.57530  0.38019  0.26407  1
 O  O7  1  0.68422  0.43699  0.74089  1
 O  O8  1  0.57530  0.88019  0.23593  1
 O  O9  1  0.62985  0.15937  0.55305  1
 O  O10  1  0.12985  0.34063  0.05305  1
 O  O11  1  0.62985  0.65937  0.94695  1
 O  O12  1  0.61957  0.16530  0.95165  1
 O  O13  1  0.07530  0.61981  0.73593  1
 O  O14  1  0.11957  0.33469  0.45165  1
 O  O15  1  0.12985  0.84063  0.44695  1
 O  O16  1  0.11957  0.83469  0.04835  1
 Si  Si1  1  0.74975  0.09196  0.75627  1
 Si  Si2  1  0.24975  0.40804  0.25627  1
 Si  Si3  1  0.74975  0.59196  0.74373  1
 Si  Si4  1  0.24975  0.90804  0.24373  1
 V  V1  1  0.74462  0.83332  0.99031  1
 V  V2  1  0.24462  0.16667  0.00969  1
 V  V3  1  0.24462  0.66667  0.49031  1
 V  V4  1  0.74462  0.33332  0.50969  1
