CIF file written using JARVIS-Tools package.
data_Li2Mn3GaO8
_symmetry_space_group_name_H-M  'R-3m'
_cell_length_a       5.84258
_cell_length_b       5.84263
_cell_length_c       5.84257
_cell_angle_alpha    58.7224
_cell_angle_beta     58.7205
_cell_angle_gamma    58.7205

_symmetry_Int_Tables_number  166
_chemical_formula_structural  Li2Mn3GaO8
_chemical_formula_sum  Li2Mn3GaO8
_cell_volume  136.90660630366042
_cell_formula_units_Z  1
loop_
  _symmetry_equiv_pos_site_id
 _symmetry_equiv_pos_as_xyz
 1  'x, y, z'
loop_
 _atom_site_type_symbol
 _atom_site_label
 _atom_site_symmetry_multiplicity
 _atom_site_fract_x
 _atom_site_fract_y
 _atom_site_fract_z
 _atom_site_fract_occupancy
 Ga  Ga1  1  0.50000  0.50000  0.50000  1
 Li  Li1  1  0.12311  0.12309  0.12310  1
 Li  Li2  1  0.87689  0.87691  0.87690  1
 Mn  Mn1  1  0.50000  0.00000  0.50000  1
 Mn  Mn2  1  0.50000  0.50000  0.00000  1
 Mn  Mn3  1  0.00000  0.50000  0.50000  1
 O  O1  1  0.26296  0.26293  0.26293  1
 O  O2  1  0.71358  0.25736  0.25737  1
 O  O3  1  0.25737  0.71358  0.25739  1
 O  O4  1  0.25736  0.25738  0.71358  1
 O  O5  1  0.74263  0.28642  0.74261  1
 O  O6  1  0.74264  0.74262  0.28642  1
 O  O7  1  0.28643  0.74264  0.74263  1
 O  O8  1  0.73704  0.73707  0.73707  1
