CIF file written using JARVIS-Tools package.
data_HoFe4Ge2
_symmetry_space_group_name_H-M  'P4_2/mnm'
_cell_length_a       7.20008
_cell_length_b       7.20008
_cell_length_c       3.76927
_cell_angle_alpha    90
_cell_angle_beta     90
_cell_angle_gamma    90

_symmetry_Int_Tables_number  136
_chemical_formula_structural  HoFe4Ge2
_chemical_formula_sum  Ho2Fe8Ge4
_cell_volume  195.40345906973437
_cell_formula_units_Z  2
loop_
  _symmetry_equiv_pos_site_id
 _symmetry_equiv_pos_as_xyz
 1  'x, y, z'
loop_
 _atom_site_type_symbol
 _atom_site_label
 _atom_site_symmetry_multiplicity
 _atom_site_fract_x
 _atom_site_fract_y
 _atom_site_fract_z
 _atom_site_fract_occupancy
 Fe  Fe1  1  0.58288  0.14062  0.00000  1
 Fe  Fe2  1  0.41712  0.85938  0.00000  1
 Fe  Fe3  1  0.64062  0.91712  0.50000  1
 Fe  Fe4  1  0.08288  0.35938  0.50000  1
 Fe  Fe5  1  0.35938  0.08288  0.50000  1
 Fe  Fe6  1  0.91712  0.64062  0.50000  1
 Fe  Fe7  1  0.14062  0.58288  0.00000  1
 Fe  Fe8  1  0.85938  0.41712  0.00000  1
 Ge  Ge1  1  0.28171  0.28171  0.00000  1
 Ge  Ge2  1  0.71829  0.71829  0.00000  1
 Ge  Ge3  1  0.78171  0.21829  0.50000  1
 Ge  Ge4  1  0.21829  0.78171  0.50000  1
 Ho  Ho1  1  0.00000  0.00000  0.00000  1
 Ho  Ho2  1  0.50000  0.50000  0.50000  1
