CIF file written using JARVIS-Tools package.
data_Ho3P6Pd20
_symmetry_space_group_name_H-M  'Fm-3m'
_cell_length_a       8.67083
_cell_length_b       8.67084
_cell_length_c       8.67084
_cell_angle_alpha    60
_cell_angle_beta     60
_cell_angle_gamma    60

_symmetry_Int_Tables_number  225
_chemical_formula_structural  Ho3P6Pd20
_chemical_formula_sum  Ho3P6Pd20
_cell_volume  460.96501316940567
_cell_formula_units_Z  1
loop_
  _symmetry_equiv_pos_site_id
 _symmetry_equiv_pos_as_xyz
 1  'x, y, z'
loop_
 _atom_site_type_symbol
 _atom_site_label
 _atom_site_symmetry_multiplicity
 _atom_site_fract_x
 _atom_site_fract_y
 _atom_site_fract_z
 _atom_site_fract_occupancy
 Ho  Ho1  1  0.25000  0.25000  0.25000  1
 Ho  Ho2  1  0.75000  0.75000  0.75000  1
 Ho  Ho3  1  0.00000  0.00000  0.00000  1
 P  P1  1  0.73641  0.26359  0.26359  1
 P  P2  1  0.26359  0.73641  0.73641  1
 P  P3  1  0.26359  0.73641  0.26359  1
 P  P4  1  0.73641  0.26359  0.73641  1
 P  P5  1  0.26359  0.26359  0.73641  1
 P  P6  1  0.73641  0.73641  0.26359  1
 Pd  Pd1  1  0.15071  0.61643  0.61643  1
 Pd  Pd2  1  0.38357  0.38357  0.38357  1
 Pd  Pd3  1  0.61643  0.61643  0.61643  1
 Pd  Pd4  1  0.38357  0.38357  0.84929  1
 Pd  Pd5  1  0.38357  0.84929  0.38357  1
 Pd  Pd6  1  0.61643  0.61643  0.15071  1
 Pd  Pd7  1  0.65466  0.34534  0.00000  1
 Pd  Pd8  1  0.84929  0.38357  0.38357  1
 Pd  Pd9  1  0.61643  0.15071  0.61643  1
 Pd  Pd10  1  0.65466  0.00000  0.34534  1
 Pd  Pd11  1  -0.00000  0.65466  0.34534  1
 Pd  Pd12  1  -0.00000  0.34534  -0.00000  1
 Pd  Pd13  1  0.34534  0.00000  0.00000  1
 Pd  Pd14  1  -0.00000  0.65466  0.00000  1
 Pd  Pd15  1  0.34534  0.00000  0.65466  1
 Pd  Pd16  1  0.00000  0.00000  0.34534  1
 Pd  Pd17  1  0.00000  0.00000  0.65466  1
 Pd  Pd18  1  -0.00000  0.34534  0.65466  1
 Pd  Pd19  1  0.65466  0.00000  0.00000  1
 Pd  Pd20  1  0.34534  0.65466  0.00000  1
