CIF file written using JARVIS-Tools package.
data_Er5In4Pt2
_symmetry_space_group_name_H-M  'Pbam'
_cell_length_a       3.61333
_cell_length_b       8.01309
_cell_length_c       18.0749
_cell_angle_alpha    90
_cell_angle_beta     90
_cell_angle_gamma    90

_symmetry_Int_Tables_number  55
_chemical_formula_structural  Er5In4Pt2
_chemical_formula_sum  Er0In8Pt4
_cell_volume  523.3391067516337
_cell_formula_units_Z  2
loop_
  _symmetry_equiv_pos_site_id
 _symmetry_equiv_pos_as_xyz
 1  'x, y, z'
loop_
 _atom_site_type_symbol
 _atom_site_label
 _atom_site_symmetry_multiplicity
 _atom_site_fract_x
 _atom_site_fract_y
 _atom_site_fract_z
 _atom_site_fract_occupancy
 Er  Er1  1  0.00000  0.11637  0.41542  1
 Er  Er2  1  0.00000  0.88363  0.58458  1
 Er  Er3  1  0.00000  0.38363  0.91542  1
 Er  Er4  1  0.00000  0.61637  0.08458  1
 Er  Er5  1  0.00000  0.24542  0.22069  1
 Er  Er6  1  0.00000  0.75458  0.77931  1
 Er  Er7  1  0.00000  0.25458  0.72069  1
 Er  Er8  1  0.00000  0.74542  0.27931  1
 Er  Er9  1  0.00000  0.00000  0.00000  1
 Er  Er10  1  0.00000  0.50000  0.50000  1
 In  In1  1  0.50000  0.92589  0.14695  1
 In  In2  1  0.50000  0.57411  0.64695  1
 In  In3  1  0.50000  0.07411  0.85305  1
 In  In4  1  0.50000  0.42589  0.35305  1
 In  In5  1  0.50000  0.79037  0.43396  1
 In  In6  1  0.50000  0.70963  0.93396  1
 In  In7  1  0.50000  0.20963  0.56604  1
 In  In8  1  0.50000  0.29037  0.06604  1
 Pt  Pt1  1  0.50000  0.97213  0.69650  1
 Pt  Pt2  1  0.50000  0.47213  0.80350  1
 Pt  Pt3  1  0.50000  0.02787  0.30350  1
 Pt  Pt4  1  0.50000  0.52787  0.19650  1
