CIF file written using JARVIS-Tools package.
data_Li3Fe3NiO8
_symmetry_space_group_name_H-M  'C2/m'
_cell_length_a       5.66227
_cell_length_b       5.66227
_cell_length_c       5.75699
_cell_angle_alpha    60.4686
_cell_angle_beta     60.4686
_cell_angle_gamma    60.2077

_symmetry_Int_Tables_number  12
_chemical_formula_structural  Li3Fe3NiO8
_chemical_formula_sum  Li3Fe3NiO8
_cell_volume  131.64039408915727
_cell_formula_units_Z  1
loop_
  _symmetry_equiv_pos_site_id
 _symmetry_equiv_pos_as_xyz
 1  'x, y, z'
loop_
 _atom_site_type_symbol
 _atom_site_label
 _atom_site_symmetry_multiplicity
 _atom_site_fract_x
 _atom_site_fract_y
 _atom_site_fract_z
 _atom_site_fract_occupancy
 Fe  Fe1  1  0.50000  -0.00000  0.50000  1
 Fe  Fe2  1  -0.00000  0.50000  0.50000  1
 Fe  Fe3  1  0.50000  0.50000  0.50000  1
 Li  Li1  1  0.50000  -0.00000  -0.00000  1
 Li  Li2  1  0.00000  0.50000  -0.00000  1
 Li  Li3  1  0.50000  0.50000  -0.00000  1
 Ni  Ni1  1  0.00000  -0.00000  0.50000  1
 O  O1  1  0.75367  0.27207  0.71402  1
 O  O2  1  0.26217  0.26217  0.71760  1
 O  O3  1  0.75420  0.75420  0.72315  1
 O  O4  1  0.27207  0.75367  0.71402  1
 O  O5  1  0.72793  0.24633  0.28598  1
 O  O6  1  0.24580  0.24580  0.27685  1
 O  O7  1  0.73783  0.73783  0.28240  1
 O  O8  1  0.24633  0.72793  0.28598  1
