CIF file written using JARVIS-Tools package.
data_V6O11F
_symmetry_space_group_name_H-M  'P1'
_cell_length_a       4.58354
_cell_length_b       5.41755
_cell_length_c       7.36201
_cell_angle_alpha    83.6369
_cell_angle_beta     89.3074
_cell_angle_gamma    89.083

_symmetry_Int_Tables_number  1
_chemical_formula_structural  V6O11F
_chemical_formula_sum  V6OF
_cell_volume  181.6511336013292
_cell_formula_units_Z  1
loop_
  _symmetry_equiv_pos_site_id
 _symmetry_equiv_pos_as_xyz
 1  'x, y, z'
loop_
 _atom_site_type_symbol
 _atom_site_label
 _atom_site_symmetry_multiplicity
 _atom_site_fract_x
 _atom_site_fract_y
 _atom_site_fract_z
 _atom_site_fract_occupancy
 F  F1  1  0.19981  0.63189  0.56570  1
 O  O1  1  0.80964  0.37214  0.43510  1
 O  O2  1  0.79439  0.70024  0.09844  1
 O  O3  1  0.20017  0.30216  0.89908  1
 O  O4  1  0.70204  0.20193  0.10053  1
 O  O5  1  0.79905  0.03082  0.76725  1
 O  O6  1  0.70085  0.86466  0.43614  1
 O  O7  1  0.30260  0.13037  0.56833  1
 O  O8  1  0.29719  0.46773  0.23581  1
 O  O9  1  0.29744  0.80221  0.89801  1
 O  O10  1  0.20184  0.96615  0.23601  1
 O  O11  1  0.70134  0.53063  0.76398  1
 V  V1  1  0.01200  0.00829  0.00772  1
 V  V2  1  0.97955  0.67136  0.31284  1
 V  V3  1  0.98895  0.31024  0.67056  1
 V  V4  1  0.50159  0.17409  0.33441  1
 V  V5  1  0.49045  0.49691  0.99571  1
 V  V6  1  0.52111  0.83816  0.67438  1
