CIF file written using JARVIS-Tools package.
data_ZnH10C7O4
_symmetry_space_group_name_H-M  'P1'
_cell_length_a       4.39206
_cell_length_b       4.73248
_cell_length_c       9.89732
_cell_angle_alpha    98.0752
_cell_angle_beta     93.6604
_cell_angle_gamma    116.968

_symmetry_Int_Tables_number  1
_chemical_formula_structural  ZnH10C7O4
_chemical_formula_sum  ZnH0C7O4
_cell_volume  179.62487616587092
_cell_formula_units_Z  1
loop_
  _symmetry_equiv_pos_site_id
 _symmetry_equiv_pos_as_xyz
 1  'x, y, z'
loop_
 _atom_site_type_symbol
 _atom_site_label
 _atom_site_symmetry_multiplicity
 _atom_site_fract_x
 _atom_site_fract_y
 _atom_site_fract_z
 _atom_site_fract_occupancy
 C  C1  1  0.84091  0.94946  -0.00068  1
 C  C2  1  0.15757  0.87848  0.20457  1
 C  C3  1  0.10950  0.96620  0.35641  1
 C  C4  1  0.79591  0.69435  0.39771  1
 C  C5  1  0.72519  0.77604  0.54483  1
 C  C6  1  -0.01463  0.78479  0.65478  1
 C  C7  1  0.08966  0.06983  0.10925  1
 H  H1  1  0.47162  0.58572  0.55753  1
 H  H2  1  0.56531  0.63582  0.32568  1
 H  H3  1  0.70836  0.29839  0.95936  1
 H  H4  1  0.34180  0.02457  0.42732  1
 H  H5  1  0.07829  0.18609  0.36999  1
 H  H6  1  0.98799  0.61915  0.16656  1
 H  H7  1  0.42404  0.91645  0.20200  1
 H  H8  1  -0.17450  0.47361  0.38652  1
 H  H9  1  0.25972  0.32884  0.12826  1
 H  H10  1  0.72168  0.00792  0.56111  1
 O  O1  1  0.95814  0.50751  0.66749  1
 O  O2  1  0.81410  0.16564  0.91813  1
 O  O3  1  0.21975  0.04234  0.72924  1
 O  O4  1  0.62048  0.64042  0.95037  1
 Zn  Zn1  1  0.21608  0.44831  0.81580  1
