CIF file written using JARVIS-Tools package.
data_Er5Ge2Sb2
_symmetry_space_group_name_H-M  'Cmce'
_cell_length_a       8.43833
_cell_length_b       8.43832
_cell_length_c       7.8576
_cell_angle_alpha    90
_cell_angle_beta     90
_cell_angle_gamma    124.684

_symmetry_Int_Tables_number  64
_chemical_formula_structural  Er5Ge2Sb2
_chemical_formula_sum  Er0Ge4Sb4
_cell_volume  460.0832415479693
_cell_formula_units_Z  2
loop_
  _symmetry_equiv_pos_site_id
 _symmetry_equiv_pos_as_xyz
 1  'x, y, z'
loop_
 _atom_site_type_symbol
 _atom_site_label
 _atom_site_symmetry_multiplicity
 _atom_site_fract_x
 _atom_site_fract_y
 _atom_site_fract_z
 _atom_site_fract_occupancy
 Er  Er1  1  0.03530  0.28795  0.33875  1
 Er  Er2  1  0.53530  0.78795  0.16125  1
 Er  Er3  1  0.46470  0.21205  0.83875  1
 Er  Er4  1  0.78795  0.53530  0.16125  1
 Er  Er5  1  0.00000  0.00000  0.00000  1
 Er  Er6  1  0.96470  0.71205  0.66125  1
 Er  Er7  1  0.71205  0.96470  0.66125  1
 Er  Er8  1  0.28795  0.03530  0.33875  1
 Er  Er9  1  0.50000  0.50000  0.50000  1
 Er  Er10  1  0.21205  0.46470  0.83875  1
 Ge  Ge1  1  0.35716  0.35716  0.14177  1
 Ge  Ge2  1  0.64284  0.64284  0.85823  1
 Ge  Ge3  1  0.14284  0.14284  0.64177  1
 Ge  Ge4  1  0.85716  0.85716  0.35823  1
 Sb  Sb1  1  0.20456  0.79544  0.00000  1
 Sb  Sb2  1  0.70456  0.29544  0.50000  1
 Sb  Sb3  1  0.79544  0.20456  0.00000  1
 Sb  Sb4  1  0.29544  0.70456  0.50000  1
