CIF file written using JARVIS-Tools package.
data_ZnH10C7O4
_symmetry_space_group_name_H-M  'P1'
_cell_length_a       4.98475
_cell_length_b       4.885
_cell_length_c       9.45661
_cell_angle_alpha    84.8268
_cell_angle_beta     84.4558
_cell_angle_gamma    54.1275

_symmetry_Int_Tables_number  1
_chemical_formula_structural  ZnH10C7O4
_chemical_formula_sum  ZnH0C7O4
_cell_volume  185.56185963538914
_cell_formula_units_Z  1
loop_
  _symmetry_equiv_pos_site_id
 _symmetry_equiv_pos_as_xyz
 1  'x, y, z'
loop_
 _atom_site_type_symbol
 _atom_site_label
 _atom_site_symmetry_multiplicity
 _atom_site_fract_x
 _atom_site_fract_y
 _atom_site_fract_z
 _atom_site_fract_occupancy
 C  C1  1  0.79241  0.57899  0.98161  1
 C  C2  1  0.16777  0.33342  0.19482  1
 C  C3  1  0.24977  0.10288  0.32893  1
 C  C4  1  0.49765  0.08568  0.41951  1
 C  C5  1  0.57070  0.86026  0.55674  1
 C  C6  1  0.29320  0.04977  0.66879  1
 C  C7  1  0.94402  0.31598  0.10240  1
 H  H1  1  0.80472  0.78516  0.59725  1
 H  H2  1  0.73274  -0.01633  0.35689  1
 H  H3  1  0.73348  0.34654  0.16793  1
 H  H4  1  0.01991  0.18868  0.39377  1
 H  H5  1  0.35178  0.84421  0.29856  1
 H  H6  1  0.39671  0.25880  0.13234  1
 H  H7  1  0.04704  0.59558  0.22439  1
 H  H8  1  0.40694  0.34228  0.44764  1
 H  H9  1  0.07553  0.06476  0.05769  1
 H  H10  1  0.59329  0.63106  0.53355  1
 O  O1  1  0.29259  0.24724  0.74924  1
 O  O2  1  0.83739  0.81153  0.97357  1
 O  O3  1  0.05473  0.01940  0.67146  1
 O  O4  1  0.61272  0.57076  0.89659  1
 Zn  Zn1  1  0.69375  0.16591  0.82008  1
