CIF file written using JARVIS-Tools package.
data_GeCl
_symmetry_space_group_name_H-M  'P-1'
_cell_length_a       3.37126
_cell_length_b       5.65465
_cell_length_c       6.80225
_cell_angle_alpha    129.398
_cell_angle_beta     102.834
_cell_angle_gamma    90.4015

_symmetry_Int_Tables_number  2
_chemical_formula_structural  GeCl
_chemical_formula_sum  Ge2Cl2
_cell_volume  95.79873669886561
_cell_formula_units_Z  2
loop_
  _symmetry_equiv_pos_site_id
 _symmetry_equiv_pos_as_xyz
 1  'x, y, z'
loop_
 _atom_site_type_symbol
 _atom_site_label
 _atom_site_symmetry_multiplicity
 _atom_site_fract_x
 _atom_site_fract_y
 _atom_site_fract_z
 _atom_site_fract_occupancy
 Cl  Cl1  1  0.69430  0.52713  0.62990  1
 Cl  Cl2  1  0.46433  0.72293  0.20818  1
 Ge  Ge1  1  0.87635  0.03706  0.02403  1
 Ge  Ge2  1  0.28240  0.21292  0.81417  1
