CIF file written using JARVIS-Tools package.
data_H3C3SNO
_symmetry_space_group_name_H-M  'P1'
_cell_length_a       4.89285
_cell_length_b       6.674
_cell_length_c       7.07551
_cell_angle_alpha    69.3247
_cell_angle_beta     64.0306
_cell_angle_gamma    83.5304

_symmetry_Int_Tables_number  1
_chemical_formula_structural  H3C3SNO
_chemical_formula_sum  H6C6S2N2O2
_cell_volume  194.10113517684542
_cell_formula_units_Z  2
loop_
  _symmetry_equiv_pos_site_id
 _symmetry_equiv_pos_as_xyz
 1  'x, y, z'
loop_
 _atom_site_type_symbol
 _atom_site_label
 _atom_site_symmetry_multiplicity
 _atom_site_fract_x
 _atom_site_fract_y
 _atom_site_fract_z
 _atom_site_fract_occupancy
 C  C1  1  0.61853  0.77879  0.34494  1
 C  C2  1  0.94909  0.24862  0.71953  1
 C  C3  1  0.61857  0.27879  0.84495  1
 C  C4  1  0.94905  0.74862  0.21952  1
 C  C5  1  0.12786  0.75488  0.34617  1
 C  C6  1  0.12789  0.25487  0.84618  1
 H  H1  1  0.53184  0.16037  0.01516  1
 H  H2  1  0.53762  0.75388  0.07981  1
 H  H3  1  0.53180  0.66037  0.51515  1
 H  H4  1  0.59898  0.43565  0.86971  1
 H  H5  1  0.53766  0.25388  0.57981  1
 H  H6  1  0.59894  0.93565  0.36971  1
 N  N1  1  0.43408  0.26611  0.73612  1
 N  N2  1  0.43405  0.76612  0.23612  1
 O  O1  1  -0.00844  0.75146  0.54303  1
 O  O2  1  -0.00841  0.25144  0.04304  1
 S  S1  1  0.09460  0.21304  0.47908  1
 S  S2  1  0.09456  0.71302  0.97908  1
