CIF file written using JARVIS-Tools package.
data_GeCl2
_symmetry_space_group_name_H-M  'Pm'
_cell_length_a       4.72415
_cell_length_b       3.83743
_cell_length_c       6.04936
_cell_angle_alpha    90
_cell_angle_beta     108.587
_cell_angle_gamma    90

_symmetry_Int_Tables_number  6
_chemical_formula_structural  GeCl2
_chemical_formula_sum  GeCl2
_cell_volume  103.94568727609905
_cell_formula_units_Z  1
loop_
  _symmetry_equiv_pos_site_id
 _symmetry_equiv_pos_as_xyz
 1  'x, y, z'
loop_
 _atom_site_type_symbol
 _atom_site_label
 _atom_site_symmetry_multiplicity
 _atom_site_fract_x
 _atom_site_fract_y
 _atom_site_fract_z
 _atom_site_fract_occupancy
 Cl  Cl1  1  -0.24740  0.00000  -0.16267  1
 Cl  Cl2  1  0.04922  0.00000  0.41549  1
 Ge  Ge1  1  0.59817  0.00000  0.14718  1
