CIF file written using JARVIS-Tools package.
data_CeSCl
_symmetry_space_group_name_H-M  'Pbca'
_cell_length_a       6.8375
_cell_length_b       6.97981
_cell_length_c       13.4321
_cell_angle_alpha    90
_cell_angle_beta     90
_cell_angle_gamma    90

_symmetry_Int_Tables_number  61
_chemical_formula_structural  CeSCl
_chemical_formula_sum  Ce8S8Cl8
_cell_volume  641.0407466485843
_cell_formula_units_Z  8
loop_
  _symmetry_equiv_pos_site_id
 _symmetry_equiv_pos_as_xyz
 1  'x, y, z'
loop_
 _atom_site_type_symbol
 _atom_site_label
 _atom_site_symmetry_multiplicity
 _atom_site_fract_x
 _atom_site_fract_y
 _atom_site_fract_z
 _atom_site_fract_occupancy
 Ce  Ce1  1  0.25816  0.96178  0.90138  1
 Ce  Ce2  1  0.74184  0.03822  0.09862  1
 Ce  Ce3  1  0.24184  0.46178  0.09862  1
 Ce  Ce4  1  0.74184  0.53822  0.40138  1
 Ce  Ce5  1  0.75816  0.53822  0.90138  1
 Ce  Ce6  1  0.25816  0.46178  0.59862  1
 Ce  Ce7  1  0.75816  0.03822  0.59862  1
 Ce  Ce8  1  0.24184  0.96178  0.40138  1
 Cl  Cl1  1  0.13678  0.12036  0.71121  1
 Cl  Cl2  1  0.63678  0.87964  0.78879  1
 Cl  Cl3  1  0.86322  0.87964  0.28879  1
 Cl  Cl4  1  0.36322  0.12036  0.21121  1
 Cl  Cl5  1  0.86322  0.37964  0.21121  1
 Cl  Cl6  1  0.13678  0.62036  0.78879  1
 Cl  Cl7  1  0.36322  0.62036  0.28879  1
 Cl  Cl8  1  0.63678  0.37964  0.71121  1
 S  S1  1  -0.00142  0.74188  0.52707  1
 S  S2  1  0.50142  0.24188  0.47293  1
 S  S3  1  0.00142  0.75812  0.02707  1
 S  S4  1  -0.00142  0.24188  0.97293  1
 S  S5  1  0.49858  0.25812  0.97293  1
 S  S6  1  0.50142  0.74188  0.02707  1
 S  S7  1  0.00142  0.25812  0.47293  1
 S  S8  1  0.49858  0.75812  0.52707  1
