CIF file written using JARVIS-Tools package.
data_NiSnO3
_symmetry_space_group_name_H-M  'R-3'
_cell_length_a       5.30544
_cell_length_b       5.30537
_cell_length_c       9.79496
_cell_angle_alpha    90.0002
_cell_angle_beta     74.2845
_cell_angle_gamma    120

_symmetry_Int_Tables_number  148
_chemical_formula_structural  NiSnO3
_chemical_formula_sum  Ni4Sn4O2
_cell_volume  226.7858904907554
_cell_formula_units_Z  4
loop_
  _symmetry_equiv_pos_site_id
 _symmetry_equiv_pos_as_xyz
 1  'x, y, z'
loop_
 _atom_site_type_symbol
 _atom_site_label
 _atom_site_symmetry_multiplicity
 _atom_site_fract_x
 _atom_site_fract_y
 _atom_site_fract_z
 _atom_site_fract_occupancy
 Ni  Ni1  1  0.64729  0.32364  0.02909  1
 Ni  Ni2  1  0.35271  0.67636  0.97091  1
 Ni  Ni3  1  0.64729  0.82364  0.52909  1
 Ni  Ni4  1  0.35271  0.17636  0.47091  1
 O  O1  1  0.94966  0.82683  0.62450  1
 O  O2  1  0.05034  0.67317  0.87550  1
 O  O3  1  0.54868  0.12283  0.62449  1
 O  O4  1  0.54868  0.62283  0.12449  1
 O  O5  1  0.94966  0.32683  0.12450  1
 O  O6  1  0.74731  0.57414  0.37551  1
 O  O7  1  0.25269  0.42586  0.62449  1
 O  O8  1  0.45132  0.37717  0.87551  1
 O  O9  1  0.74731  0.07414  0.87551  1
 O  O10  1  0.45132  0.87717  0.37551  1
 O  O11  1  0.25269  0.92586  0.12449  1
 O  O12  1  0.05034  0.17317  0.37550  1
 Sn  Sn1  1  0.14429  0.07215  0.78357  1
 Sn  Sn2  1  0.14429  0.57215  0.28357  1
 Sn  Sn3  1  0.85571  0.42785  0.71643  1
 Sn  Sn4  1  0.85571  0.92785  0.21643  1
