CIF file written using JARVIS-Tools package.
data_Ni3OF5
_symmetry_space_group_name_H-M  'Pm'
_cell_length_a       3.03891
_cell_length_b       6.51529
_cell_length_c       10.4006
_cell_angle_alpha    69.9752
_cell_angle_beta     90
_cell_angle_gamma    90

_symmetry_Int_Tables_number  6
_chemical_formula_structural  Ni3OF5
_chemical_formula_sum  Ni6O2F0
_cell_volume  193.47634965664773
_cell_formula_units_Z  2
loop_
  _symmetry_equiv_pos_site_id
 _symmetry_equiv_pos_as_xyz
 1  'x, y, z'
loop_
 _atom_site_type_symbol
 _atom_site_label
 _atom_site_symmetry_multiplicity
 _atom_site_fract_x
 _atom_site_fract_y
 _atom_site_fract_z
 _atom_site_fract_occupancy
 F  F1  1  0.00000  0.96179  0.68455  1
 F  F2  1  0.00000  0.63039  0.35185  1
 F  F3  1  0.00000  0.37623  0.64980  1
 F  F4  1  0.00000  0.69968  -0.00966  1
 F  F5  1  0.50000  0.90657  0.12861  1
 F  F6  1  0.50000  0.41958  0.21050  1
 F  F7  1  0.50000  0.76224  0.53355  1
 F  F8  1  0.50000  0.58200  0.79852  1
 F  F9  1  0.50000  0.08921  0.86079  1
 F  F10  1  0.00000  0.04265  0.30924  1
 Ni  Ni1  1  0.50000  0.17405  0.65265  1
 Ni  Ni2  1  0.00000  0.32395  0.35141  1
 Ni  Ni3  1  0.00000  0.66969  0.66708  1
 Ni  Ni4  1  0.50000  0.83694  0.33051  1
 Ni  Ni5  1  0.50000  0.47307  0.00720  1
 Ni  Ni6  1  0.00000  0.01719  0.99619  1
 O  O1  1  0.50000  0.23958  0.46487  1
 O  O2  1  0.00000  0.29516  0.01231  1
