CIF file written using JARVIS-Tools package.
data_Na2CoO3
_symmetry_space_group_name_H-M  'C2/m'
_cell_length_a       5.17434
_cell_length_b       5.17434
_cell_length_c       5.56439
_cell_angle_alpha    80.8148
_cell_angle_beta     80.8148
_cell_angle_gamma    120.064

_symmetry_Int_Tables_number  12
_chemical_formula_structural  Na2CoO3
_chemical_formula_sum  Na4Co2O6
_cell_volume  122.17602900185814
_cell_formula_units_Z  2
loop_
  _symmetry_equiv_pos_site_id
 _symmetry_equiv_pos_as_xyz
 1  'x, y, z'
loop_
 _atom_site_type_symbol
 _atom_site_label
 _atom_site_symmetry_multiplicity
 _atom_site_fract_x
 _atom_site_fract_y
 _atom_site_fract_z
 _atom_site_fract_occupancy
 Co  Co1  1  0.33275  0.66725  -0.00000  1
 Co  Co2  1  0.66725  0.33275  -0.00000  1
 Na  Na1  1  0.84297  0.15703  0.50000  1
 Na  Na2  1  0.15703  0.84297  0.50000  1
 Na  Na3  1  0.50000  0.50000  0.50000  1
 Na  Na4  1  0.00000  0.00000  0.00000  1
 O  O1  1  0.69063  0.69063  0.80116  1
 O  O2  1  0.93236  0.55332  0.19811  1
 O  O3  1  0.55332  0.93236  0.19811  1
 O  O4  1  0.06764  0.44668  0.80189  1
 O  O5  1  0.44668  0.06764  0.80189  1
 O  O6  1  0.30937  0.30937  0.19884  1
