CIF file written using JARVIS-Tools package.
data_H8C11SO
_symmetry_space_group_name_H-M  'P1'
_cell_length_a       4.16835
_cell_length_b       8.97413
_cell_length_c       11.8129
_cell_angle_alpha    103.167
_cell_angle_beta     97.4061
_cell_angle_gamma    107.177

_symmetry_Int_Tables_number  1
_chemical_formula_structural  H8C11SO
_chemical_formula_sum  H6C22S2O2
_cell_volume  401.83570081364417
_cell_formula_units_Z  2
loop_
  _symmetry_equiv_pos_site_id
 _symmetry_equiv_pos_as_xyz
 1  'x, y, z'
loop_
 _atom_site_type_symbol
 _atom_site_label
 _atom_site_symmetry_multiplicity
 _atom_site_fract_x
 _atom_site_fract_y
 _atom_site_fract_z
 _atom_site_fract_occupancy
 C  C1  1  0.93320  0.67022  0.98984  1
 C  C2  1  0.99192  0.55254  0.04366  1
 C  C3  1  0.35673  0.82747  0.67451  1
 C  C4  1  0.85670  0.82746  0.17452  1
 C  C5  1  0.48783  0.57944  0.66521  1
 C  C6  1  0.43306  0.67018  0.48982  1
 C  C7  1  0.98770  0.57940  0.16521  1
 C  C8  1  0.49191  0.55254  0.54366  1
 C  C9  1  0.42308  0.71560  0.73027  1
 C  C10  1  0.05045  0.41376  0.96815  1
 C  C11  1  0.26887  0.97639  0.72272  1
 C  C12  1  0.76877  0.97636  0.22272  1
 C  C13  1  0.67284  0.16078  0.37124  1
 C  C14  1  0.17288  0.16080  0.87123  1
 C  C15  1  0.55040  0.41375  0.46815  1
 C  C16  1  0.54734  0.38842  0.34862  1
 C  C17  1  0.04750  0.38848  0.84863  1
 C  C18  1  0.61631  0.24805  0.29326  1
 C  C19  1  0.11648  0.24811  0.79326  1
 C  C20  1  0.92292  0.71555  0.23027  1
 C  C21  1  0.36617  0.80270  0.55326  1
 C  C22  1  0.86629  0.80274  0.05328  1
 H  H1  1  0.81804  0.88986  0.00792  1
 H  H2  1  0.49785  0.46982  0.29889  1
 H  H3  1  0.43669  0.65799  0.39648  1
 H  H4  1  0.93695  0.65806  0.89651  1
 H  H5  1  0.92225  0.73254  0.32453  1
 H  H6  1  0.53096  0.49176  0.71053  1
 H  H7  1  0.03072  0.49169  0.21051  1
 H  H8  1  -0.03908  0.08082  0.20843  1
 H  H9  1  0.46110  0.08085  0.70845  1
 H  H10  1  -0.00189  0.46990  0.79891  1
 H  H11  1  0.62438  0.21616  0.19983  1
 H  H12  1  0.12465  0.21623  0.69985  1
 H  H13  1  0.01699  0.96077  0.67000  1
 H  H14  1  0.51685  0.96070  0.17002  1
 H  H15  1  0.31782  0.88980  0.50788  1
 H  H16  1  0.42253  0.73263  0.82454  1
 O  O1  1  0.25061  0.02063  0.84748  1
 O  O2  1  0.75061  0.02062  0.34749  1
 S  S1  1  0.13950  0.25403  0.01430  1
 S  S2  1  0.63957  0.25404  0.51431  1
