CIF file written using JARVIS-Tools package.
data_H4C5SO2
_symmetry_space_group_name_H-M  'P1'
_cell_length_a       5.60152
_cell_length_b       6.75626
_cell_length_c       7.79351
_cell_angle_alpha    108.267
_cell_angle_beta     96.8145
_cell_angle_gamma    109.272

_symmetry_Int_Tables_number  1
_chemical_formula_structural  H4C5SO2
_chemical_formula_sum  H8C0S2O4
_cell_volume  256.1427580154979
_cell_formula_units_Z  2
loop_
  _symmetry_equiv_pos_site_id
 _symmetry_equiv_pos_as_xyz
 1  'x, y, z'
loop_
 _atom_site_type_symbol
 _atom_site_label
 _atom_site_symmetry_multiplicity
 _atom_site_fract_x
 _atom_site_fract_y
 _atom_site_fract_z
 _atom_site_fract_occupancy
 C  C1  1  0.22243  0.31155  0.34435  1
 C  C2  1  0.65064  0.61514  0.52849  1
 C  C3  1  0.38829  0.23078  0.41530  1
 C  C4  1  0.38820  0.23075  0.91530  1
 C  C5  1  0.63584  0.40753  0.52227  1
 C  C6  1  0.63577  0.40747  0.02227  1
 C  C7  1  0.65066  0.61510  0.02848  1
 C  C8  1  0.22240  0.31158  0.84434  1
 C  C9  1  0.82334  0.99348  0.24975  1
 C  C10  1  0.82324  0.99357  0.74970  1
 H  H1  1  0.88562  0.99214  0.88812  1
 H  H2  1  0.61758  0.96985  0.71567  1
 H  H3  1  0.79485  0.38186  0.09378  1
 H  H4  1  0.79495  0.38195  0.59376  1
 H  H5  1  0.33386  0.05338  0.89521  1
 H  H6  1  0.33401  0.05340  0.39520  1
 H  H7  1  0.88584  0.99203  0.38814  1
 H  H8  1  0.61766  0.96973  0.21579  1
 O  O1  1  0.86483  0.81505  0.11031  1
 O  O2  1  0.96893  0.20182  0.23943  1
 O  O3  1  0.86478  0.81512  0.61033  1
 O  O4  1  0.96892  0.20189  0.73940  1
 S  S1  1  0.35784  0.60261  0.40437  1
 S  S2  1  0.35791  0.60262  0.90435  1
