CIF file written using JARVIS-Tools package.
data_TmAl6Cr6
_symmetry_space_group_name_H-M  'Immm'
_cell_length_a       6.64504
_cell_length_b       6.64504
_cell_length_c       6.64504
_cell_angle_alpha    135.512
_cell_angle_beta     99.0308
_cell_angle_gamma    97.4489

_symmetry_Int_Tables_number  71
_chemical_formula_structural  TmAl6Cr6
_chemical_formula_sum  TmAl6Cr6
_cell_volume  190.29342361060338
_cell_formula_units_Z  1
loop_
  _symmetry_equiv_pos_site_id
 _symmetry_equiv_pos_as_xyz
 1  'x, y, z'
loop_
 _atom_site_type_symbol
 _atom_site_label
 _atom_site_symmetry_multiplicity
 _atom_site_fract_x
 _atom_site_fract_y
 _atom_site_fract_z
 _atom_site_fract_occupancy
 Al  Al1  1  0.34517  -0.00000  0.34517  1
 Al  Al2  1  0.65483  -0.00000  0.65483  1
 Al  Al3  1  0.32938  0.32938  -0.00000  1
 Al  Al4  1  0.67062  0.67062  0.00000  1
 Al  Al5  1  0.81012  0.50000  0.31012  1
 Al  Al6  1  0.18988  0.50000  0.68988  1
 Cr  Cr1  1  -0.00000  0.50000  -0.00000  1
 Cr  Cr2  1  0.00000  -0.00000  0.50000  1
 Cr  Cr3  1  0.50000  -0.00000  -0.00000  1
 Cr  Cr4  1  0.50000  0.50000  0.50000  1
 Cr  Cr5  1  0.75801  0.25801  0.50000  1
 Cr  Cr6  1  0.24199  0.74199  0.50000  1
 Tm  Tm1  1  0.00000  0.00000  0.00000  1
