CIF file written using JARVIS-Tools package.
data_Li2VCoO4
_symmetry_space_group_name_H-M  'P1'
_cell_length_a       5.16658
_cell_length_b       5.72677
_cell_length_c       7.58031
_cell_angle_alpha    79.255
_cell_angle_beta     71.3525
_cell_angle_gamma    89.9125

_symmetry_Int_Tables_number  1
_chemical_formula_structural  Li2VCoO4
_chemical_formula_sum  Li6V3Co3O2
_cell_volume  208.3774861307503
_cell_formula_units_Z  3
loop_
  _symmetry_equiv_pos_site_id
 _symmetry_equiv_pos_as_xyz
 1  'x, y, z'
loop_
 _atom_site_type_symbol
 _atom_site_label
 _atom_site_symmetry_multiplicity
 _atom_site_fract_x
 _atom_site_fract_y
 _atom_site_fract_z
 _atom_site_fract_occupancy
 Co  Co1  1  0.49879  0.74241  0.01321  1
 Co  Co2  1  0.49982  0.55906  0.67661  1
 Co  Co3  1  0.50045  0.42928  0.31928  1
 Li  Li1  1  0.99876  0.83321  0.67162  1
 Li  Li2  1  0.01106  0.51564  -0.00616  1
 Li  Li3  1  0.98947  0.65306  0.34009  1
 Li  Li4  1  0.00551  -0.00112  -0.00004  1
 Li  Li5  1  0.00402  0.33417  0.66127  1
 Li  Li6  1  -0.00563  0.16371  0.33289  1
 O  O1  1  0.74165  0.35818  0.50381  1
 O  O2  1  0.71855  0.19282  0.16561  1
 O  O3  1  0.76145  0.71911  0.17001  1
 O  O4  1  0.28176  0.80826  0.81905  1
 O  O5  1  0.25481  0.27692  0.84510  1
 O  O6  1  0.25245  0.63460  0.49273  1
 O  O7  1  0.24226  0.45023  0.15936  1
 O  O8  1  0.27607  0.97340  0.17080  1
 O  O9  1  0.75574  0.53524  0.84033  1
 O  O10  1  0.71794  0.88311  0.49603  1
 O  O11  1  0.27774  0.11514  0.49727  1
 O  O12  1  0.71806  0.05902  0.83676  1
 V  V1  1  0.49666  0.09759  0.66528  1
 V  V2  1  0.49454  0.88241  0.33047  1
 V  V3  1  0.50810  0.28454  -0.00138  1
