CIF file written using JARVIS-Tools package.
data_H6C7O2
_symmetry_space_group_name_H-M  'P1'
_cell_length_a       6.34899
_cell_length_b       6.03879
_cell_length_c       8.93019
_cell_angle_alpha    57.141
_cell_angle_beta     67.0842
_cell_angle_gamma    72.2458

_symmetry_Int_Tables_number  1
_chemical_formula_structural  H6C7O2
_chemical_formula_sum  H2C4O4
_cell_volume  262.9596960987357
_cell_formula_units_Z  2
loop_
  _symmetry_equiv_pos_site_id
 _symmetry_equiv_pos_as_xyz
 1  'x, y, z'
loop_
 _atom_site_type_symbol
 _atom_site_label
 _atom_site_symmetry_multiplicity
 _atom_site_fract_x
 _atom_site_fract_y
 _atom_site_fract_z
 _atom_site_fract_occupancy
 C  C1  1  0.46539  0.87023  0.39757  1
 C  C2  1  0.39271  0.12919  0.54845  1
 C  C3  1  0.05184  0.12235  0.79543  1
 C  C4  1  0.05184  0.62235  0.29543  1
 C  C5  1  0.62532  0.66429  0.98022  1
 C  C6  1  0.77831  0.05095  0.37119  1
 C  C7  1  0.77831  0.55095  0.87119  1
 C  C8  1  0.62532  0.16429  0.48022  1
 C  C9  1  0.39271  0.62919  0.04845  1
 C  C10  1  0.69850  0.39835  0.83462  1
 C  C11  1  0.31108  0.98789  0.50378  1
 C  C12  1  0.31108  0.48789  0.00378  1
 C  C13  1  0.69850  0.89835  0.33462  1
 C  C14  1  0.46539  0.37023  0.89757  1
 H  H1  1  0.12891  0.96420  0.55359  1
 H  H2  1  0.06868  0.42059  0.31933  1
 H  H3  1  0.12891  0.46420  0.05359  1
 H  H4  1  0.03829  0.61864  0.42266  1
 H  H5  1  0.03829  0.11864  0.92266  1
 H  H6  1  0.06868  0.92059  0.81933  1
 H  H7  1  0.68425  0.77510  0.01712  1
 H  H8  1  0.96065  0.07615  0.31732  1
 H  H9  1  0.96065  0.57615  0.81732  1
 H  H10  1  0.68425  0.27510  0.51712  1
 H  H11  1  0.40687  0.75445  0.36442  1
 H  H12  1  0.40687  0.25445  0.86442  1
 O  O1  1  0.84784  0.76455  0.23776  1
 O  O2  1  0.25209  0.24354  0.65983  1
 O  O3  1  0.25209  0.74354  0.15983  1
 O  O4  1  0.84784  0.26455  0.73776  1
