CIF file written using JARVIS-Tools package.
data_TaAlFe4
_symmetry_space_group_name_H-M  'P-3m1'
_cell_length_a       4.73571
_cell_length_b       4.7357
_cell_length_c       7.65675
_cell_angle_alpha    90
_cell_angle_beta     90
_cell_angle_gamma    120

_symmetry_Int_Tables_number  164
_chemical_formula_structural  TaAlFe4
_chemical_formula_sum  Ta2Al2Fe8
_cell_volume  148.71153908978172
_cell_formula_units_Z  2
loop_
  _symmetry_equiv_pos_site_id
 _symmetry_equiv_pos_as_xyz
 1  'x, y, z'
loop_
 _atom_site_type_symbol
 _atom_site_label
 _atom_site_symmetry_multiplicity
 _atom_site_fract_x
 _atom_site_fract_y
 _atom_site_fract_z
 _atom_site_fract_occupancy
 Al  Al1  1  0.33333  0.66667  0.44476  1
 Al  Al2  1  0.66667  0.33333  0.55524  1
 Fe  Fe1  1  0.00000  0.00000  0.50000  1
 Fe  Fe2  1  0.00000  0.00000  0.00000  1
 Fe  Fe3  1  0.82959  0.17041  0.25232  1
 Fe  Fe4  1  0.82959  0.65917  0.25232  1
 Fe  Fe5  1  0.34083  0.17041  0.25232  1
 Fe  Fe6  1  0.17041  0.82959  0.74768  1
 Fe  Fe7  1  0.17041  0.34083  0.74768  1
 Fe  Fe8  1  0.65917  0.82959  0.74768  1
 Ta  Ta1  1  0.66667  0.33333  0.92222  1
 Ta  Ta2  1  0.33333  0.66667  0.07778  1
