CIF file written using JARVIS-Tools package.
data_H10C17SO
_symmetry_space_group_name_H-M  'P1'
_cell_length_a       3.818
_cell_length_b       6.10547
_cell_length_c       12.3565
_cell_angle_alpha    75.7607
_cell_angle_beta     91.764
_cell_angle_gamma    77.7157

_symmetry_Int_Tables_number  1
_chemical_formula_structural  H10C17SO
_chemical_formula_sum  H0C7SO
_cell_volume  271.74442253345046
_cell_formula_units_Z  1
loop_
  _symmetry_equiv_pos_site_id
 _symmetry_equiv_pos_as_xyz
 1  'x, y, z'
loop_
 _atom_site_type_symbol
 _atom_site_label
 _atom_site_symmetry_multiplicity
 _atom_site_fract_x
 _atom_site_fract_y
 _atom_site_fract_z
 _atom_site_fract_occupancy
 C  C1  1  0.01467  0.46548  0.82881  1
 C  C2  1  0.45384  0.87787  0.57477  1
 C  C3  1  0.72656  0.17540  0.17672  1
 C  C4  1  0.37652  0.76813  0.49209  1
 C  C5  1  0.13682  0.71465  0.96956  1
 C  C6  1  0.82779  0.51973  0.72180  1
 C  C7  1  0.37219  0.54742  0.06602  1
 C  C8  1  0.17068  0.89300  0.39240  1
 C  C9  1  0.00052  0.65981  0.86975  1
 C  C10  1  0.02986  0.13411  0.36915  1
 C  C11  1  0.31310  0.11894  0.55152  1
 C  C12  1  0.66830  0.51085  0.24874  1
 C  C13  1  0.10917  0.24218  0.45252  1
 C  C14  1  0.45859  0.64419  0.15268  1
 C  C15  1  0.80846  0.27111  0.26457  1
 C  C16  1  0.66798  0.75468  0.68008  1
 C  C17  1  0.51303  0.30919  0.07952  1
 H  H1  1  0.46371  0.22327  0.01515  1
 H  H2  1  0.36260  0.21225  0.61307  1
 H  H3  1  0.12002  0.79989  0.33113  1
 H  H4  1  0.80806  0.38917  0.67725  1
 H  H5  1  0.72156  0.59678  0.31259  1
 H  H6  1  0.83194  0.99256  0.18234  1
 H  H7  1  0.35604  0.82923  0.14163  1
 H  H8  1  0.01129  0.42771  0.44063  1
 H  H9  1  0.14460  0.28872  0.87394  1
 H  H10  1  0.47894  0.58173  0.50610  1
 O  O1  1  0.04408  0.92322  0.97233  1
 S  S1  1  0.75028  0.90784  0.77490  1
