CIF file written using JARVIS-Tools package.
data_Sr6Co4O13
_symmetry_space_group_name_H-M  'Cmmm'
_cell_length_a       10.4414
_cell_length_b       10.4414
_cell_length_c       5.37622
_cell_angle_alpha    90
_cell_angle_beta     90
_cell_angle_gamma    150.121

_symmetry_Int_Tables_number  65
_chemical_formula_structural  Sr6Co4O13
_chemical_formula_sum  Sr6Co4O3
_cell_volume  291.99878508278294
_cell_formula_units_Z  1
loop_
  _symmetry_equiv_pos_site_id
 _symmetry_equiv_pos_as_xyz
 1  'x, y, z'
loop_
 _atom_site_type_symbol
 _atom_site_label
 _atom_site_symmetry_multiplicity
 _atom_site_fract_x
 _atom_site_fract_y
 _atom_site_fract_z
 _atom_site_fract_occupancy
 Co  Co1  1  0.39363  0.60637  0.50000  1
 Co  Co2  1  0.90540  0.09460  0.00000  1
 Co  Co3  1  0.09460  0.90540  0.00000  1
 Co  Co4  1  0.60637  0.39363  0.50000  1
 O  O1  1  0.81018  0.18982  0.00000  1
 O  O2  1  0.65394  0.83257  0.74420  1
 O  O3  1  0.69976  0.30024  0.50000  1
 O  O4  1  0.83257  0.65394  0.74420  1
 O  O5  1  0.34606  0.16743  0.25580  1
 O  O6  1  0.16743  0.34606  0.74420  1
 O  O7  1  0.16743  0.34606  0.25580  1
 O  O8  1  0.34606  0.16743  0.74420  1
 O  O9  1  0.83257  0.65394  0.25580  1
 O  O10  1  0.00000  0.00000  0.00000  1
 O  O11  1  0.65394  0.83257  0.25580  1
 O  O12  1  0.18982  0.81018  0.00000  1
 O  O13  1  0.30024  0.69976  0.50000  1
 Sr  Sr1  1  0.82059  0.17941  0.50000  1
 Sr  Sr2  1  0.31762  0.68238  0.00000  1
 Sr  Sr3  1  0.68238  0.31762  0.00000  1
 Sr  Sr4  1  0.17941  0.82059  0.50000  1
 Sr  Sr5  1  0.00000  0.00000  0.50000  1
 Sr  Sr6  1  0.50000  0.50000  0.00000  1
