CIF file written using JARVIS-Tools package.
data_SiGeN
_symmetry_space_group_name_H-M  'Pm'
_cell_length_a       6.62901
_cell_length_b       2.93243
_cell_length_c       3.00203
_cell_angle_alpha    90
_cell_angle_beta     90
_cell_angle_gamma    103.168

_symmetry_Int_Tables_number  6
_chemical_formula_structural  SiGeN
_chemical_formula_sum  SiGeN
_cell_volume  56.82235911845871
_cell_formula_units_Z  1
loop_
  _symmetry_equiv_pos_site_id
 _symmetry_equiv_pos_as_xyz
 1  'x, y, z'
loop_
 _atom_site_type_symbol
 _atom_site_label
 _atom_site_symmetry_multiplicity
 _atom_site_fract_x
 _atom_site_fract_y
 _atom_site_fract_z
 _atom_site_fract_occupancy
 Ge  Ge1  1  0.21296  -0.22368  0.00000  1
 N  N1  1  0.02543  0.17976  0.00000  1
 Si  Si1  1  0.76161  0.04392  0.00000  1
