CIF file written using JARVIS-Tools package.
data_HC3SO
_symmetry_space_group_name_H-M  'P1'
_cell_length_a       3.94593
_cell_length_b       8.30141
_cell_length_c       9.89735
_cell_angle_alpha    103.238
_cell_angle_beta     90.4237
_cell_angle_gamma    99.901

_symmetry_Int_Tables_number  1
_chemical_formula_structural  HC3SO
_chemical_formula_sum  H4C2S4O4
_cell_volume  310.5195434020418
_cell_formula_units_Z  4
loop_
  _symmetry_equiv_pos_site_id
 _symmetry_equiv_pos_as_xyz
 1  'x, y, z'
loop_
 _atom_site_type_symbol
 _atom_site_label
 _atom_site_symmetry_multiplicity
 _atom_site_fract_x
 _atom_site_fract_y
 _atom_site_fract_z
 _atom_site_fract_occupancy
 C  C1  1  0.00164  0.12367  0.57632  1
 C  C2  1  0.10709  0.03498  0.45196  1
 C  C3  1  0.36374  0.51554  0.16152  1
 C  C4  1  0.86377  0.01554  0.66152  1
 C  C5  1  0.71013  0.69234  0.63790  1
 C  C6  1  0.21014  0.19233  0.13790  1
 C  C7  1  0.28274  0.07747  0.33169  1
 C  C8  1  0.78272  0.57747  0.83169  1
 C  C9  1  0.35004  0.34601  0.09813  1
 C  C10  1  0.85005  0.84601  0.59814  1
 C  C11  1  0.60707  0.53498  0.95196  1
 C  C12  1  0.50161  0.62367  0.07631  1
 H  H1  1  0.27100  0.55747  0.26441  1
 H  H2  1  0.03216  0.26004  0.60624  1
 H  H3  1  0.53211  0.76003  0.10623  1
 H  H4  1  0.77104  0.05747  0.76442  1
 O  O1  1  0.68557  0.70869  0.78188  1
 O  O2  1  0.99028  0.49649  0.77274  1
 O  O3  1  0.49030  0.99650  0.27274  1
 O  O4  1  0.18559  0.20869  0.28188  1
 S  S1  1  0.52301  0.32070  0.93674  1
 S  S2  1  0.02301  0.82071  0.43674  1
 S  S3  1  0.58569  0.51375  0.52412  1
 S  S4  1  0.08570  0.01375  0.02413  1
