CIF file written using JARVIS-Tools package.
data_SiGeN
_symmetry_space_group_name_H-M  'P4mm'
_cell_length_a       3.1052
_cell_length_b       3.1052
_cell_length_c       7.08463
_cell_angle_alpha    90
_cell_angle_beta     90
_cell_angle_gamma    90

_symmetry_Int_Tables_number  99
_chemical_formula_structural  SiGeN
_chemical_formula_sum  SiGeN
_cell_volume  68.3118883637509
_cell_formula_units_Z  1
loop_
  _symmetry_equiv_pos_site_id
 _symmetry_equiv_pos_as_xyz
 1  'x, y, z'
loop_
 _atom_site_type_symbol
 _atom_site_label
 _atom_site_symmetry_multiplicity
 _atom_site_fract_x
 _atom_site_fract_y
 _atom_site_fract_z
 _atom_site_fract_occupancy
 Ge  Ge1  1  0.00000  0.00000  0.44410  1
 N  N1  1  0.00000  0.00000  0.69087  1
 Si  Si1  1  0.00000  0.00000  -0.08137  1
