CIF file written using JARVIS-Tools package.
data_Li3Fe2Co2O8
_symmetry_space_group_name_H-M  'C2/m'
_cell_length_a       5.65294
_cell_length_b       5.68079
_cell_length_c       5.70309
_cell_angle_alpha    59.5412
_cell_angle_beta     60.0323
_cell_angle_gamma    90.1432

_symmetry_Int_Tables_number  12
_chemical_formula_structural  Li3Fe2Co2O8
_chemical_formula_sum  Li3Fe2Co2O8
_cell_volume  128.49502356186957
_cell_formula_units_Z  1
loop_
  _symmetry_equiv_pos_site_id
 _symmetry_equiv_pos_as_xyz
 1  'x, y, z'
loop_
 _atom_site_type_symbol
 _atom_site_label
 _atom_site_symmetry_multiplicity
 _atom_site_fract_x
 _atom_site_fract_y
 _atom_site_fract_z
 _atom_site_fract_occupancy
 Co  Co1  1  0.00000  0.00000  0.00000  1
 Co  Co2  1  0.00000  0.00000  0.50000  1
 Fe  Fe1  1  -0.00000  0.50000  0.50000  1
 Fe  Fe2  1  0.50000  -0.00000  0.00000  1
 Li  Li1  1  -0.00000  0.50000  0.00000  1
 Li  Li2  1  0.50000  0.00000  0.50000  1
 Li  Li3  1  0.50000  0.50000  0.50000  1
 O  O1  1  0.24014  0.21609  0.01890  1
 O  O2  1  0.23758  0.76242  0.01989  1
 O  O3  1  0.21608  0.24014  0.52485  1
 O  O4  1  0.24072  0.75927  0.48328  1
 O  O5  1  0.75928  0.24073  0.51672  1
 O  O6  1  0.78392  0.75986  0.47515  1
 O  O7  1  0.76242  0.23758  0.98011  1
 O  O8  1  0.75986  0.78391  0.98110  1
