CIF file written using JARVIS-Tools package.
data_Mn3CuO8
_symmetry_space_group_name_H-M  'R-3m'
_cell_length_a       5.78388
_cell_length_b       5.78388
_cell_length_c       5.78388
_cell_angle_alpha    58.6574
_cell_angle_beta     58.6575
_cell_angle_gamma    58.6574

_symmetry_Int_Tables_number  166
_chemical_formula_structural  Mn3CuO8
_chemical_formula_sum  Mn3CuO8
_cell_volume  132.61964290459034
_cell_formula_units_Z  1
loop_
  _symmetry_equiv_pos_site_id
 _symmetry_equiv_pos_as_xyz
 1  'x, y, z'
loop_
 _atom_site_type_symbol
 _atom_site_label
 _atom_site_symmetry_multiplicity
 _atom_site_fract_x
 _atom_site_fract_y
 _atom_site_fract_z
 _atom_site_fract_occupancy
 Cu  Cu1  1  0.50000  0.50000  0.50000  1
 Mn  Mn1  1  0.50000  0.00000  0.50000  1
 Mn  Mn2  1  0.50000  0.50000  0.00000  1
 Mn  Mn3  1  -0.00000  0.50000  0.50000  1
 O  O1  1  0.26369  0.26369  0.26369  1
 O  O2  1  0.70845  0.25742  0.25742  1
 O  O3  1  0.25742  0.25742  0.70845  1
 O  O4  1  0.25742  0.70845  0.25742  1
 O  O5  1  0.74258  0.29155  0.74258  1
 O  O6  1  0.74258  0.74258  0.29155  1
 O  O7  1  0.29155  0.74258  0.74258  1
 O  O8  1  0.73631  0.73631  0.73631  1
