CIF file written using JARVIS-Tools package.
data_GeN
_symmetry_space_group_name_H-M  'C2/m'
_cell_length_a       3.93746
_cell_length_b       5.59173
_cell_length_c       4.57032
_cell_angle_alpha    35.2899
_cell_angle_beta     81.9378
_cell_angle_gamma    69.3675

_symmetry_Int_Tables_number  12
_chemical_formula_structural  GeN
_chemical_formula_sum  Ge2N2
_cell_volume  52.344127256833886
_cell_formula_units_Z  2
loop_
  _symmetry_equiv_pos_site_id
 _symmetry_equiv_pos_as_xyz
 1  'x, y, z'
loop_
 _atom_site_type_symbol
 _atom_site_label
 _atom_site_symmetry_multiplicity
 _atom_site_fract_x
 _atom_site_fract_y
 _atom_site_fract_z
 _atom_site_fract_occupancy
 Ge  Ge1  1  0.13529  -0.00806  0.39378  1
 Ge  Ge2  1  0.46501  0.32583  0.48660  1
 N  N1  1  -0.01233  0.56500  0.57279  1
 N  N2  1  0.61261  0.75275  0.30762  1
