CIF file written using JARVIS-Tools package.
data_CO2
_symmetry_space_group_name_H-M  'Pm'
_cell_length_a       4.45403
_cell_length_b       4.43771
_cell_length_c       6.98115
_cell_angle_alpha    89.9875
_cell_angle_beta     89.7676
_cell_angle_gamma    89.9959

_symmetry_Int_Tables_number  6
_chemical_formula_structural  CO2
_chemical_formula_sum  C4O8
_cell_volume  137.98620848104267
_cell_formula_units_Z  4
loop_
  _symmetry_equiv_pos_site_id
 _symmetry_equiv_pos_as_xyz
 1  'x, y, z'
loop_
 _atom_site_type_symbol
 _atom_site_label
 _atom_site_symmetry_multiplicity
 _atom_site_fract_x
 _atom_site_fract_y
 _atom_site_fract_z
 _atom_site_fract_occupancy
 C  C1  1  0.15064  0.34050  0.18901  1
 C  C2  1  0.65069  0.33979  0.68901  1
 C  C3  1  0.65009  0.83975  0.78078  1
 C  C4  1  0.15004  0.84046  0.28078  1
 O  O1  1  0.31861  0.59039  0.23507  1
 O  O2  1  0.81867  0.58983  0.73484  1
 O  O3  1  0.91097  0.34061  0.11241  1
 O  O4  1  0.41103  0.33976  0.61241  1
 O  O5  1  0.40934  0.83968  0.85726  1
 O  O6  1  0.90928  0.84052  0.35726  1
 O  O7  1  0.31862  0.09040  0.23485  1
 O  O8  1  0.81867  0.08984  0.73508  1
