CIF file written using JARVIS-Tools package.
data_GeN
_symmetry_space_group_name_H-M  'Cm'
_cell_length_a       3.09145
_cell_length_b       3.1934
_cell_length_c       4.01531
_cell_angle_alpha    53.93
_cell_angle_beta     89.9974
_cell_angle_gamma    61.0469

_symmetry_Int_Tables_number  8
_chemical_formula_structural  GeN
_chemical_formula_sum  GeN
_cell_volume  25.659834826469524
_cell_formula_units_Z  1
loop_
  _symmetry_equiv_pos_site_id
 _symmetry_equiv_pos_as_xyz
 1  'x, y, z'
loop_
 _atom_site_type_symbol
 _atom_site_label
 _atom_site_symmetry_multiplicity
 _atom_site_fract_x
 _atom_site_fract_y
 _atom_site_fract_z
 _atom_site_fract_occupancy
 Ge  Ge1  1  0.95924  0.97610  0.92136  1
 N  N1  1  0.15146  0.59167  0.62601  1
