CIF file written using JARVIS-Tools package.
data_Sr4LaCo5O15
_symmetry_space_group_name_H-M  'C2/m'
_cell_length_a       8.53448
_cell_length_b       8.53448
_cell_length_c       6.61526
_cell_angle_alpha    75.1249
_cell_angle_beta     75.1249
_cell_angle_gamma    36.9237

_symmetry_Int_Tables_number  12
_chemical_formula_structural  Sr4LaCo5O15
_chemical_formula_sum  Sr4LaCo5O5
_cell_volume  278.6615974372096
_cell_formula_units_Z  1
loop_
  _symmetry_equiv_pos_site_id
 _symmetry_equiv_pos_as_xyz
 1  'x, y, z'
loop_
 _atom_site_type_symbol
 _atom_site_label
 _atom_site_symmetry_multiplicity
 _atom_site_fract_x
 _atom_site_fract_y
 _atom_site_fract_z
 _atom_site_fract_occupancy
 Co  Co1  1  0.89848  0.89848  0.39973  1
 Co  Co2  1  0.50000  0.50000  -0.00000  1
 Co  Co3  1  0.10152  0.10152  0.60027  1
 Co  Co4  1  0.70132  0.70132  0.19753  1
 Co  Co5  1  0.29868  0.29868  0.80247  1
 La  La1  1  0.50000  0.50000  0.50000  1
 O  O1  1  0.59977  0.10780  0.59937  1
 O  O2  1  0.69743  0.20434  0.20485  1
 O  O3  1  0.30257  0.79566  0.79515  1
 O  O4  1  0.40023  0.89220  0.40063  1
 O  O5  1  0.50000  -0.00000  -0.00000  1
 O  O6  1  0.10780  0.59977  0.59937  1
 O  O7  1  0.79890  0.79890  0.30486  1
 O  O8  1  0.89220  0.40023  0.40063  1
 O  O9  1  0.00000  0.00000  0.50000  1
 O  O10  1  -0.00000  0.50000  -0.00000  1
 O  O11  1  0.20110  0.20110  0.69514  1
 O  O12  1  0.40161  0.40161  0.89499  1
 O  O13  1  0.20434  0.69743  0.20485  1
 O  O14  1  0.79566  0.30257  0.79515  1
 O  O15  1  0.59839  0.59839  0.10501  1
 Sr  Sr1  1  0.90032  0.90032  0.90043  1
 Sr  Sr2  1  0.29972  0.29972  0.29941  1
 Sr  Sr3  1  0.70028  0.70028  0.70059  1
 Sr  Sr4  1  0.09968  0.09968  0.09957  1
