CIF file written using JARVIS-Tools package.
data_Ge3N
_symmetry_space_group_name_H-M  'P1'
_cell_length_a       2.92891
_cell_length_b       4.62284
_cell_length_c       5.949
_cell_angle_alpha    71.8206
_cell_angle_beta     85.5153
_cell_angle_gamma    110.173

_symmetry_Int_Tables_number  1
_chemical_formula_structural  Ge3N
_chemical_formula_sum  Ge3N
_cell_volume  70.25737306006428
_cell_formula_units_Z  1
loop_
  _symmetry_equiv_pos_site_id
 _symmetry_equiv_pos_as_xyz
 1  'x, y, z'
loop_
 _atom_site_type_symbol
 _atom_site_label
 _atom_site_symmetry_multiplicity
 _atom_site_fract_x
 _atom_site_fract_y
 _atom_site_fract_z
 _atom_site_fract_occupancy
 Ge  Ge1  1  0.14119  0.21432  0.86216  1
 Ge  Ge2  1  0.48832  0.80642  0.55044  1
 Ge  Ge3  1  0.41102  0.52191  0.23926  1
 N  N1  1  0.14598  0.09507  0.55019  1
