CIF file written using JARVIS-Tools package.
data_H9C13SN
_symmetry_space_group_name_H-M  'P1'
_cell_length_a       3.68218
_cell_length_b       5.74548
_cell_length_c       11.2064
_cell_angle_alpha    85.6512
_cell_angle_beta     104.861
_cell_angle_gamma    95.2971

_symmetry_Int_Tables_number  1
_chemical_formula_structural  H9C13SN
_chemical_formula_sum  H9C3SN
_cell_volume  227.83659878479767
_cell_formula_units_Z  1
loop_
  _symmetry_equiv_pos_site_id
 _symmetry_equiv_pos_as_xyz
 1  'x, y, z'
loop_
 _atom_site_type_symbol
 _atom_site_label
 _atom_site_symmetry_multiplicity
 _atom_site_fract_x
 _atom_site_fract_y
 _atom_site_fract_z
 _atom_site_fract_occupancy
 C  C1  1  0.79065  0.28577  0.37131  1
 C  C2  1  0.89985  0.44288  0.58369  1
 C  C3  1  0.24663  0.64659  0.76738  1
 C  C4  1  0.57883  0.66122  0.39170  1
 C  C5  1  0.48349  0.70048  0.26470  1
 C  C6  1  0.19985  0.44620  0.84318  1
 C  C7  1  0.74813  0.45734  0.44822  1
 C  C8  1  0.09571  0.64259  0.64072  1
 C  C9  1  0.54824  0.53450  0.18803  1
 C  C10  1  0.69050  0.32274  0.24269  1
 C  C11  1  0.86287  0.24154  0.66020  1
 C  C12  1  0.49658  0.60216  0.05435  1
 C  C13  1  0.00809  0.24310  0.78763  1
 H  H1  1  0.96846  0.08599  0.84520  1
 H  H2  1  0.74752  0.19107  0.18598  1
 H  H3  1  0.70856  0.08284  0.62038  1
 H  H4  1  0.52273  0.79114  0.44929  1
 H  H5  1  0.39851  0.80389  0.80743  1
 H  H6  1  0.35452  0.85950  0.22265  1
 H  H7  1  0.13655  0.80037  0.58377  1
 H  H8  1  0.25096  0.27947  0.01452  1
 H  H9  1  0.92755  0.12779  0.41181  1
 N  N1  1  0.32279  0.43665  0.97402  1
 S  S1  1  0.66571  0.87106  0.01726  1
