CIF file written using JARVIS-Tools package.
data_Li4Mn5FeO12
_symmetry_space_group_name_H-M  'C2/m'
_cell_length_a       4.86749
_cell_length_b       4.8675
_cell_length_c       9.96379
_cell_angle_alpha    85.3248
_cell_angle_beta     85.3247
_cell_angle_gamma    120.068

_symmetry_Int_Tables_number  12
_chemical_formula_structural  Li4Mn5FeO12
_chemical_formula_sum  Li4Mn5FeO2
_cell_volume  201.56260373449456
_cell_formula_units_Z  1
loop_
  _symmetry_equiv_pos_site_id
 _symmetry_equiv_pos_as_xyz
 1  'x, y, z'
loop_
 _atom_site_type_symbol
 _atom_site_label
 _atom_site_symmetry_multiplicity
 _atom_site_fract_x
 _atom_site_fract_y
 _atom_site_fract_z
 _atom_site_fract_occupancy
 Fe  Fe1  1  0.00000  0.00000  0.00000  1
 Li  Li1  1  0.91539  0.24538  0.24115  1
 Li  Li2  1  0.75462  0.08461  0.75885  1
 Li  Li3  1  0.24538  0.91539  0.24115  1
 Li  Li4  1  0.08461  0.75462  0.75885  1
 Mn  Mn1  1  0.83323  0.16677  0.50000  1
 Mn  Mn2  1  0.33675  0.66325  -0.00000  1
 Mn  Mn3  1  0.66325  0.33675  0.00000  1
 Mn  Mn4  1  0.16677  0.83323  0.50000  1
 Mn  Mn5  1  0.50000  0.50000  0.50000  1
 O  O1  1  0.29309  0.29309  0.10930  1
 O  O2  1  0.62718  -0.02986  0.10715  1
 O  O3  1  0.80091  0.46363  0.60844  1
 O  O4  1  0.46363  0.80091  0.60844  1
 O  O5  1  0.02986  0.37282  0.89285  1
 O  O6  1  -0.02986  0.62718  0.10715  1
 O  O7  1  0.19909  0.53637  0.39156  1
 O  O8  1  0.37282  0.02986  0.89285  1
 O  O9  1  0.70691  0.70691  0.89070  1
 O  O10  1  0.53637  0.19909  0.39156  1
 O  O11  1  0.87344  0.87344  0.39129  1
 O  O12  1  0.12656  0.12656  0.60871  1
