CIF file written using JARVIS-Tools package.
data_Pr6Cu8P8O3
_symmetry_space_group_name_H-M  'C222'
_cell_length_a       13.5869
_cell_length_b       13.5869
_cell_length_c       5.64906
_cell_angle_alpha    90
_cell_angle_beta     90
_cell_angle_gamma    156.007

_symmetry_Int_Tables_number  21
_chemical_formula_structural  Pr6Cu8P8O3
_chemical_formula_sum  Pr6Cu8P8O3
_cell_volume  424.0508575100943
_cell_formula_units_Z  1
loop_
  _symmetry_equiv_pos_site_id
 _symmetry_equiv_pos_as_xyz
 1  'x, y, z'
loop_
 _atom_site_type_symbol
 _atom_site_label
 _atom_site_symmetry_multiplicity
 _atom_site_fract_x
 _atom_site_fract_y
 _atom_site_fract_z
 _atom_site_fract_occupancy
 Cu  Cu1  1  0.65253  0.34747  0.50000  1
 Cu  Cu2  1  0.65341  0.34659  0.00000  1
 Cu  Cu3  1  0.15578  0.84422  0.00000  1
 Cu  Cu4  1  0.15335  0.84665  0.50000  1
 Cu  Cu5  1  0.84422  0.15578  0.00000  1
 Cu  Cu6  1  0.34659  0.65341  0.00000  1
 Cu  Cu7  1  0.84665  0.15335  0.50000  1
 Cu  Cu8  1  0.34747  0.65253  0.50000  1
 O  O1  1  0.50000  0.50000  0.00000  1
 O  O2  1  0.50000  0.50000  0.50000  1
 O  O3  1  0.00000  0.00000  0.50000  1
 P  P1  1  0.86154  0.65138  0.75671  1
 P  P2  1  0.34862  0.13846  0.24329  1
 P  P3  1  0.65138  0.86154  0.24329  1
 P  P4  1  0.13846  0.34862  0.75671  1
 P  P5  1  0.54298  0.95471  0.74814  1
 P  P6  1  0.04529  0.45702  0.25186  1
 P  P7  1  0.95471  0.54298  0.25186  1
 P  P8  1  0.45702  0.04529  0.74814  1
 Pr  Pr1  1  0.50000  -0.00000  0.24999  1
 Pr  Pr2  1  0.31423  0.21373  0.73602  1
 Pr  Pr3  1  0.78627  0.68577  0.26398  1
 Pr  Pr4  1  0.21373  0.31423  0.26398  1
 Pr  Pr5  1  0.00000  0.50000  0.75001  1
 Pr  Pr6  1  0.68577  0.78627  0.73602  1
