CIF file written using JARVIS-Tools package.
data_H5C7SNO
_symmetry_space_group_name_H-M  'P1'
_cell_length_a       3.70872
_cell_length_b       5.43652
_cell_length_c       7.62971
_cell_angle_alpha    91.8112
_cell_angle_beta     92.3863
_cell_angle_gamma    91.1597

_symmetry_Int_Tables_number  1
_chemical_formula_structural  H5C7SNO
_chemical_formula_sum  H5C7SNO
_cell_volume  153.5882834860186
_cell_formula_units_Z  1
loop_
  _symmetry_equiv_pos_site_id
 _symmetry_equiv_pos_as_xyz
 1  'x, y, z'
loop_
 _atom_site_type_symbol
 _atom_site_label
 _atom_site_symmetry_multiplicity
 _atom_site_fract_x
 _atom_site_fract_y
 _atom_site_fract_z
 _atom_site_fract_occupancy
 C  C1  1  0.30798  0.69528  0.50984  1
 C  C2  1  0.32808  0.68816  0.32861  1
 C  C3  1  0.45008  0.50352  0.60780  1
 C  C4  1  0.49027  0.48895  0.24697  1
 C  C5  1  0.59479  0.29804  0.52351  1
 C  C6  1  0.61639  0.29061  0.34102  1
 C  C7  1  0.43511  0.39666  0.92744  1
 H  H1  1  0.71315  0.15388  0.60157  1
 H  H2  1  0.23315  0.83875  0.24919  1
 H  H3  1  0.19325  0.85289  0.57769  1
 H  H4  1  0.75007  0.14097  0.27364  1
 H  H5  1  0.53576  0.72610  0.83085  1
 N  N1  1  0.48114  0.54642  0.79177  1
 O  O1  1  0.57598  0.52552  0.07258  1
 S  S1  1  0.24069  0.11962  0.92633  1
