CIF file written using JARVIS-Tools package.
data_VGeO4
_symmetry_space_group_name_H-M  'Pbcn'
_cell_length_a       4.33406
_cell_length_b       4.72915
_cell_length_c       11.2665
_cell_angle_alpha    90
_cell_angle_beta     89.9999
_cell_angle_gamma    90

_symmetry_Int_Tables_number  60
_chemical_formula_structural  VGeO4
_chemical_formula_sum  V4Ge4O6
_cell_volume  230.923759100869
_cell_formula_units_Z  4
loop_
  _symmetry_equiv_pos_site_id
 _symmetry_equiv_pos_as_xyz
 1  'x, y, z'
loop_
 _atom_site_type_symbol
 _atom_site_label
 _atom_site_symmetry_multiplicity
 _atom_site_fract_x
 _atom_site_fract_y
 _atom_site_fract_z
 _atom_site_fract_occupancy
 Ge  Ge1  1  0.00000  0.75000  0.81595  1
 Ge  Ge2  1  0.50000  0.25000  0.68405  1
 Ge  Ge3  1  0.50000  0.75000  0.31595  1
 Ge  Ge4  1  0.00000  0.25000  0.18405  1
 O  O1  1  0.25555  0.08833  0.56041  1
 O  O2  1  0.22719  0.08080  0.31208  1
 O  O3  1  0.27281  0.58080  0.18792  1
 O  O4  1  0.27281  0.08080  0.81208  1
 O  O5  1  0.75555  0.91167  0.93959  1
 O  O6  1  0.77281  0.41920  0.31208  1
 O  O7  1  0.72719  0.91920  0.18792  1
 O  O8  1  0.22719  0.58080  0.68792  1
 O  O9  1  0.77281  0.91920  0.68792  1
 O  O10  1  0.74444  0.41167  0.56041  1
 O  O11  1  0.24445  0.08833  0.06041  1
 O  O12  1  0.72719  0.41920  0.81208  1
 O  O13  1  0.24445  0.58833  0.93959  1
 O  O14  1  0.75556  0.41167  0.06041  1
 O  O15  1  0.74444  0.91167  0.43959  1
 O  O16  1  0.25555  0.58833  0.43959  1
 V  V1  1  0.50000  0.25000  0.94304  1
 V  V2  1  -0.00000  0.75000  0.55696  1
 V  V3  1  -0.00000  0.25000  0.44304  1
 V  V4  1  0.50000  0.75000  0.05696  1
