CIF file written using JARVIS-Tools package.
data_SnH14C8O4
_symmetry_space_group_name_H-M  'P1'
_cell_length_a       5.09328
_cell_length_b       6.08152
_cell_length_c       8.2414
_cell_angle_alpha    85.9466
_cell_angle_beta     78.8557
_cell_angle_gamma    84.9562

_symmetry_Int_Tables_number  1
_chemical_formula_structural  SnH14C8O4
_chemical_formula_sum  SnH4C8O4
_cell_volume  249.1162089116723
_cell_formula_units_Z  1
loop_
  _symmetry_equiv_pos_site_id
 _symmetry_equiv_pos_as_xyz
 1  'x, y, z'
loop_
 _atom_site_type_symbol
 _atom_site_label
 _atom_site_symmetry_multiplicity
 _atom_site_fract_x
 _atom_site_fract_y
 _atom_site_fract_z
 _atom_site_fract_occupancy
 C  C1  1  0.49817  0.53017  0.43038  1
 C  C2  1  0.79409  0.41799  0.83070  1
 C  C3  1  0.29887  0.89188  0.97351  1
 C  C4  1  0.14949  0.23232  0.14086  1
 C  C5  1  0.32891  0.24032  0.26947  1
 C  C6  1  0.38325  0.48367  0.28239  1
 C  C7  1  0.08647  0.00107  0.10254  1
 C  C8  1  0.71348  -0.00345  0.57866  1
 H  H1  1  0.97312  0.36021  0.74356  1
 H  H2  1  0.06524  0.89093  0.21580  1
 H  H3  1  0.89533  0.00608  0.05971  1
 H  H4  1  0.22455  0.17372  0.39023  1
 H  H5  1  0.51798  0.13829  0.23493  1
 H  H6  1  0.65795  0.28662  0.86851  1
 H  H7  1  0.95925  0.32669  0.18768  1
 H  H8  1  0.55470  0.12433  0.62111  1
 H  H9  1  0.90298  0.03652  0.60915  1
 H  H10  1  0.73488  -0.02153  0.44572  1
 H  H11  1  0.85142  0.48485  0.93726  1
 H  H12  1  0.23966  0.32075  0.02504  1
 H  H13  1  0.19016  0.58114  0.29112  1
 H  H14  1  0.52112  0.53986  0.17061  1
 O  O1  1  0.54598  0.91284  0.96287  1
 O  O2  1  0.74660  0.52844  0.42771  1
 O  O3  1  0.22162  0.77423  0.86717  1
 O  O4  1  0.32947  0.58189  0.56580  1
 Sn  Sn1  1  0.60703  0.69104  0.70803  1
