CIF file written using JARVIS-Tools package.
data_Pr2Mn3Sb3O14
_symmetry_space_group_name_H-M  'C2/m'
_cell_length_a       7.23836
_cell_length_b       7.23836
_cell_length_c       7.33193
_cell_angle_alpha    61.1906
_cell_angle_beta     61.1906
_cell_angle_gamma    61.9372

_symmetry_Int_Tables_number  12
_chemical_formula_structural  Pr2Mn3Sb3O14
_chemical_formula_sum  Pr2Mn3Sb3O4
_cell_volume  280.38391357636135
_cell_formula_units_Z  1
loop_
  _symmetry_equiv_pos_site_id
 _symmetry_equiv_pos_as_xyz
 1  'x, y, z'
loop_
 _atom_site_type_symbol
 _atom_site_label
 _atom_site_symmetry_multiplicity
 _atom_site_fract_x
 _atom_site_fract_y
 _atom_site_fract_z
 _atom_site_fract_occupancy
 Mn  Mn1  1  0.50000  0.50000  0.50000  1
 Mn  Mn2  1  0.00000  0.00000  0.00000  1
 Mn  Mn3  1  0.00000  0.00000  0.50000  1
 O  O1  1  0.41445  0.82948  0.82512  1
 O  O2  1  0.58792  0.58792  0.15160  1
 O  O3  1  0.17449  0.17449  0.55256  1
 O  O4  1  0.89747  0.89747  0.85559  1
 O  O5  1  0.58555  0.17052  0.17488  1
 O  O6  1  0.17052  0.58555  0.17488  1
 O  O7  1  0.18122  0.56513  0.58313  1
 O  O8  1  0.41208  0.41208  0.84840  1
 O  O9  1  0.82551  0.82551  0.44744  1
 O  O10  1  0.10253  0.10253  0.14441  1
 O  O11  1  0.56513  0.18122  0.58313  1
 O  O12  1  0.82948  0.41445  0.82512  1
 O  O13  1  0.43487  0.81878  0.41687  1
 O  O14  1  0.81878  0.43487  0.41687  1
 Pr  Pr1  1  -0.00000  0.50000  -0.00000  1
 Pr  Pr2  1  0.50000  0.00000  -0.00000  1
 Sb  Sb1  1  0.50000  0.00000  0.50000  1
 Sb  Sb2  1  -0.00000  0.50000  0.50000  1
 Sb  Sb3  1  0.50000  0.50000  -0.00000  1
