CIF file written using JARVIS-Tools package.
data_PdSeS
_symmetry_space_group_name_H-M  'P2_12_12_1'
_cell_length_a       5.69971
_cell_length_b       5.80485
_cell_length_c       7.58703
_cell_angle_alpha    90
_cell_angle_beta     90
_cell_angle_gamma    90

_symmetry_Int_Tables_number  19
_chemical_formula_structural  PdSeS
_chemical_formula_sum  Pd4Se4S4
_cell_volume  251.02463237087022
_cell_formula_units_Z  4
loop_
  _symmetry_equiv_pos_site_id
 _symmetry_equiv_pos_as_xyz
 1  'x, y, z'
loop_
 _atom_site_type_symbol
 _atom_site_label
 _atom_site_symmetry_multiplicity
 _atom_site_fract_x
 _atom_site_fract_y
 _atom_site_fract_z
 _atom_site_fract_occupancy
 Pd  Pd1  1  0.51783  0.99222  0.50088  1
 Pd  Pd2  1  0.01783  0.50778  0.49912  1
 Pd  Pd3  1  0.48217  0.49222  -0.00088  1
 Pd  Pd4  1  0.98217  0.00778  0.00088  1
 S  S1  1  0.59633  0.11628  0.08458  1
 S  S2  1  0.09633  0.38372  0.91542  1
 S  S3  1  0.40367  0.61628  0.41542  1
 S  S4  1  0.90367  0.88372  0.58458  1
 Se  Se1  1  0.37874  0.88630  0.90327  1
 Se  Se2  1  0.87874  0.61370  0.09673  1
 Se  Se3  1  0.62126  0.38630  0.59673  1
 Se  Se4  1  0.12126  0.11370  0.40327  1
