CIF file written using JARVIS-Tools package.
data_NaGeSe
_symmetry_space_group_name_H-M  'Amm2'
_cell_length_a       6.50301
_cell_length_b       3.70016
_cell_length_c       3.63742
_cell_angle_alpha    90
_cell_angle_beta     90
_cell_angle_gamma    106.505

_symmetry_Int_Tables_number  38
_chemical_formula_structural  NaGeSe
_chemical_formula_sum  NaGeSe
_cell_volume  83.91765268226581
_cell_formula_units_Z  1
loop_
  _symmetry_equiv_pos_site_id
 _symmetry_equiv_pos_as_xyz
 1  'x, y, z'
loop_
 _atom_site_type_symbol
 _atom_site_label
 _atom_site_symmetry_multiplicity
 _atom_site_fract_x
 _atom_site_fract_y
 _atom_site_fract_z
 _atom_site_fract_occupancy
 Ge  Ge1  1  -0.20131  -0.22185  0.00000  1
 Na  Na1  1  0.41184  0.08446  0.00000  1
 Se  Se1  1  0.06149  0.40942  0.00000  1
