CIF file written using JARVIS-Tools package.
data_SnH20C11O4
_symmetry_space_group_name_H-M  'P1'
_cell_length_a       5.16025
_cell_length_b       6.5509
_cell_length_c       9.44272
_cell_angle_alpha    97.759
_cell_angle_beta     93.9663
_cell_angle_gamma    89.6836

_symmetry_Int_Tables_number  1
_chemical_formula_structural  SnH20C11O4
_chemical_formula_sum  SnH20CO4
_cell_volume  315.5226207352556
_cell_formula_units_Z  1
loop_
  _symmetry_equiv_pos_site_id
 _symmetry_equiv_pos_as_xyz
 1  'x, y, z'
loop_
 _atom_site_type_symbol
 _atom_site_label
 _atom_site_symmetry_multiplicity
 _atom_site_fract_x
 _atom_site_fract_y
 _atom_site_fract_z
 _atom_site_fract_occupancy
 C  C1  1  0.52892  0.63019  0.49850  1
 C  C2  1  0.09238  0.10419  0.29096  1
 C  C3  1  0.73370  0.65094  0.26540  1
 C  C4  1  0.35400  0.50254  0.57870  1
 C  C5  1  0.43887  0.16065  0.00151  1
 C  C6  1  0.59707  0.51458  0.35266  1
 C  C7  1  0.29743  0.16024  0.68134  1
 C  C8  1  0.48336  0.30777  0.62452  1
 C  C9  1  0.13683  0.25980  0.80259  1
 C  C10  1  0.29595  0.33710  0.94327  1
 C  C11  1  0.83934  0.73261  0.90628  1
 H  H1  1  0.41470  0.46481  0.29101  1
 H  H2  1  0.99050  0.14919  0.82470  1
 H  H3  1  0.02893  0.39000  0.76667  1
 H  H4  1  0.43319  0.45926  0.93038  1
 H  H5  1  0.16386  0.40212  0.02467  1
 H  H6  1  0.16164  0.09250  0.59245  1
 H  H7  1  0.40960  0.02994  0.71654  1
 H  H8  1  0.71681  0.37916  0.36539  1
 H  H9  1  0.66173  0.78856  0.85430  1
 H  H10  1  0.42807  0.77332  0.47951  1
 H  H11  1  0.70937  0.67480  0.56521  1
 H  H12  1  0.09563  0.26487  0.27129  1
 H  H13  1  0.29354  0.60216  0.67433  1
 H  H14  1  0.00571  0.74284  0.84186  1
 H  H15  1  0.81158  0.57541  0.92916  1
 H  H16  1  -0.02810  0.08657  0.37969  1
 H  H17  1  0.28733  0.04293  0.30966  1
 H  H18  1  0.17492  0.46096  0.51034  1
 H  H19  1  0.57638  0.22098  0.53342  1
 H  H20  1  0.64119  0.35476  0.70651  1
 O  O1  1  0.31865  0.99466  0.00636  1
 O  O2  1  0.96717  0.62229  0.23236  1
 O  O3  1  0.68313  0.18618  0.04205  1
 O  O4  1  0.60314  0.80386  0.22306  1
 Sn  Sn1  1  0.91257  0.92489  0.10617  1
