CIF file written using JARVIS-Tools package.
data_Li2CoP2O7
_symmetry_space_group_name_H-M  'C2/c'
_cell_length_a       5.13627
_cell_length_b       5.13627
_cell_length_c       11.7315
_cell_angle_alpha    86.2463
_cell_angle_beta     86.2463
_cell_angle_gamma    53.8342

_symmetry_Int_Tables_number  15
_chemical_formula_structural  Li2CoP2O7
_chemical_formula_sum  Li4Co2P4O4
_cell_volume  249.18113336169762
_cell_formula_units_Z  2
loop_
  _symmetry_equiv_pos_site_id
 _symmetry_equiv_pos_as_xyz
 1  'x, y, z'
loop_
 _atom_site_type_symbol
 _atom_site_label
 _atom_site_symmetry_multiplicity
 _atom_site_fract_x
 _atom_site_fract_y
 _atom_site_fract_z
 _atom_site_fract_occupancy
 Co  Co1  1  0.00000  0.50000  0.50000  1
 Co  Co2  1  0.50000  0.00000  -0.00000  1
 Li  Li1  1  0.60867  0.08931  0.69339  1
 Li  Li2  1  0.91069  0.39133  0.80661  1
 Li  Li3  1  0.08931  0.60867  0.19339  1
 Li  Li4  1  0.39133  0.91069  0.30661  1
 O  O1  1  0.34242  0.48506  0.59909  1
 O  O2  1  0.33043  0.32754  0.83428  1
 O  O3  1  0.06129  0.17887  0.05136  1
 O  O4  1  0.51494  0.65758  0.90091  1
 O  O5  1  0.90390  0.09610  0.25000  1
 O  O6  1  0.66957  0.67246  0.16572  1
 O  O7  1  0.32754  0.33043  0.33428  1
 O  O8  1  0.67246  0.66957  0.66572  1
 O  O9  1  0.48506  0.34242  0.09909  1
 O  O10  1  0.09610  0.90390  0.75000  1
 O  O11  1  0.82113  0.93871  0.44864  1
 O  O12  1  0.93871  0.82113  0.94864  1
 O  O13  1  0.17887  0.06129  0.55136  1
 O  O14  1  0.65758  0.51494  0.40091  1
 P  P1  1  0.33873  0.77023  0.63067  1
 P  P2  1  0.22977  0.66127  0.86933  1
 P  P3  1  0.77023  0.33873  0.13067  1
 P  P4  1  0.66127  0.22977  0.36933  1
