CIF file written using JARVIS-Tools package.
data_NaGeSe
_symmetry_space_group_name_H-M  'P4mm'
_cell_length_a       3.08428
_cell_length_b       3.08428
_cell_length_c       8.1055
_cell_angle_alpha    90
_cell_angle_beta     90
_cell_angle_gamma    90

_symmetry_Int_Tables_number  99
_chemical_formula_structural  NaGeSe
_chemical_formula_sum  NaGeSe
_cell_volume  77.10598780605956
_cell_formula_units_Z  1
loop_
  _symmetry_equiv_pos_site_id
 _symmetry_equiv_pos_as_xyz
 1  'x, y, z'
loop_
 _atom_site_type_symbol
 _atom_site_label
 _atom_site_symmetry_multiplicity
 _atom_site_fract_x
 _atom_site_fract_y
 _atom_site_fract_z
 _atom_site_fract_occupancy
 Ge  Ge1  1  0.00000  0.00000  0.29671  1
 Na  Na1  1  0.00000  0.00000  0.65342  1
 Se  Se1  1  0.00000  0.00000  -0.00587  1
