CIF file written using JARVIS-Tools package.
data_SnH14C8O6
_symmetry_space_group_name_H-M  'P1'
_cell_length_a       5.23289
_cell_length_b       5.76326
_cell_length_c       9.1921
_cell_angle_alpha    109.941
_cell_angle_beta     89.3555
_cell_angle_gamma    93.0733

_symmetry_Int_Tables_number  1
_chemical_formula_structural  SnH14C8O6
_chemical_formula_sum  SnH4C8O6
_cell_volume  260.2172899948551
_cell_formula_units_Z  1
loop_
  _symmetry_equiv_pos_site_id
 _symmetry_equiv_pos_as_xyz
 1  'x, y, z'
loop_
 _atom_site_type_symbol
 _atom_site_label
 _atom_site_symmetry_multiplicity
 _atom_site_fract_x
 _atom_site_fract_y
 _atom_site_fract_z
 _atom_site_fract_occupancy
 C  C1  1  0.44979  0.74674  0.88062  1
 C  C2  1  0.59985  0.99388  0.54153  1
 C  C3  1  0.86115  0.72934  0.31165  1
 C  C4  1  0.76344  0.77740  0.47838  1
 C  C5  1  0.58466  0.97702  0.98501  1
 C  C6  1  0.41420  0.13739  0.11342  1
 C  C7  1  0.50377  0.41211  0.17511  1
 C  C8  1  0.79280  0.46257  0.20683  1
 H  H1  1  0.65251  0.61577  0.48703  1
 H  H2  1  0.44695  0.50115  0.09231  1
 H  H3  1  0.39628  0.49830  0.28195  1
 H  H4  1  0.21821  0.12041  0.06813  1
 H  H5  1  0.76094  0.92810  0.02877  1
 H  H6  1  0.65086  0.07495  0.90593  1
 H  H7  1  0.86365  0.33503  0.26127  1
 H  H8  1  0.92419  0.80979  0.56075  1
 H  H9  1  0.06936  0.76735  0.31382  1
 H  H10  1  0.77771  0.85927  0.26356  1
 H  H11  1  0.89682  0.42420  0.09704  1
 H  H12  1  0.87887  0.37725  0.83735  1
 H  H13  1  0.94484  0.31029  0.48531  1
 H  H14  1  0.40696  0.06525  0.21010  1
 O  O1  1  0.58088  0.54913  0.81550  1
 O  O2  1  0.13010  0.35680  0.48767  1
 O  O3  1  0.41682  0.97932  0.63607  1
 O  O4  1  0.62816  0.19156  0.51010  1
 O  O5  1  0.21572  0.73131  0.84447  1
 O  O6  1  -0.00703  0.23866  0.80611  1
 Sn  Sn1  1  0.26571  0.33224  0.68077  1
