CIF file written using JARVIS-Tools package.
data_Nb6V2C3S6
_symmetry_space_group_name_H-M  'C2/m'
_cell_length_a       5.73742
_cell_length_b       5.73742
_cell_length_c       8.86367
_cell_angle_alpha    83.8388
_cell_angle_beta     83.8388
_cell_angle_gamma    120.109

_symmetry_Int_Tables_number  12
_chemical_formula_structural  Nb6V2C3S6
_chemical_formula_sum  Nb6V2C3S6
_cell_volume  246.50138034411202
_cell_formula_units_Z  1
loop_
  _symmetry_equiv_pos_site_id
 _symmetry_equiv_pos_as_xyz
 1  'x, y, z'
loop_
 _atom_site_type_symbol
 _atom_site_label
 _atom_site_symmetry_multiplicity
 _atom_site_fract_x
 _atom_site_fract_y
 _atom_site_fract_z
 _atom_site_fract_occupancy
 C  C1  1  0.66630  0.33370  0.00000  1
 C  C2  1  0.00000  0.00000  0.00000  1
 C  C3  1  0.33370  0.66630  0.00000  1
 Nb  Nb1  1  0.62230  0.62230  0.13314  1
 Nb  Nb2  1  0.04317  0.71073  0.86884  1
 Nb  Nb3  1  0.28927  0.95683  0.13116  1
 Nb  Nb4  1  0.37770  0.37770  0.86686  1
 Nb  Nb5  1  0.71073  0.04317  0.86884  1
 Nb  Nb6  1  0.95683  0.28927  0.13116  1
 S  S1  1  0.12001  0.44541  0.66337  1
 S  S2  1  0.77225  0.77225  0.66455  1
 S  S3  1  0.22775  0.22775  0.33545  1
 S  S4  1  0.87999  0.55459  0.33663  1
 S  S5  1  0.55459  0.87999  0.33663  1
 S  S6  1  0.44541  0.12001  0.66337  1
 V  V1  1  0.16973  0.83027  0.50000  1
 V  V2  1  0.83027  0.16973  0.50000  1
