CIF file written using JARVIS-Tools package.
data_VF5
_symmetry_space_group_name_H-M  'P2_1/c'
_cell_length_a       9.98204
_cell_length_b       5.16638
_cell_length_c       6.15642
_cell_angle_alpha    76.0472
_cell_angle_beta     90
_cell_angle_gamma    90

_symmetry_Int_Tables_number  14
_chemical_formula_structural  VF5
_chemical_formula_sum  V4F20
_cell_volume  308.1248872428869
_cell_formula_units_Z  4
loop_
  _symmetry_equiv_pos_site_id
 _symmetry_equiv_pos_as_xyz
 1  'x, y, z'
loop_
 _atom_site_type_symbol
 _atom_site_label
 _atom_site_symmetry_multiplicity
 _atom_site_fract_x
 _atom_site_fract_y
 _atom_site_fract_z
 _atom_site_fract_occupancy
 F  F1  1  0.91888  0.63519  0.03126  1
 F  F2  1  0.08252  0.81261  0.69019  1
 F  F3  1  0.81930  0.80254  0.68677  1
 F  F4  1  0.36082  0.71818  0.70195  1
 F  F5  1  0.58144  0.63053  0.91370  1
 F  F6  1  0.41748  0.81261  0.19019  1
 F  F7  1  0.68070  0.80254  0.18677  1
 F  F8  1  0.13918  0.71818  0.20195  1
 F  F9  1  0.18070  0.19746  0.31323  1
 F  F10  1  0.58112  0.63519  0.53126  1
 F  F11  1  0.08112  0.36481  0.96874  1
 F  F12  1  0.91748  0.18739  0.30981  1
 F  F13  1  0.08144  0.36947  0.58630  1
 F  F14  1  0.41888  0.36481  0.46874  1
 F  F15  1  0.86082  0.28182  0.79805  1
 F  F16  1  0.31930  0.19746  0.81323  1
 F  F17  1  0.58252  0.18739  0.80981  1
 F  F18  1  0.41856  0.36947  0.08630  1
 F  F19  1  0.63918  0.28182  0.29805  1
 F  F20  1  0.91856  0.63053  0.41370  1
 V  V1  1  0.04783  0.42050  0.26577  1
 V  V2  1  0.54783  0.57950  0.23423  1
 V  V3  1  0.45217  0.42050  0.76577  1
 V  V4  1  0.95217  0.57950  0.73423  1
