CIF file written using JARVIS-Tools package.
data_SnGeS4
_symmetry_space_group_name_H-M  'I-4m2'
_cell_length_a       6.29578
_cell_length_b       6.29578
_cell_length_c       6.29578
_cell_angle_alpha    130.679
_cell_angle_beta     130.679
_cell_angle_gamma    72.3237

_symmetry_Int_Tables_number  119
_chemical_formula_structural  SnGeS4
_chemical_formula_sum  SnGeS4
_cell_volume  140.29631084348043
_cell_formula_units_Z  1
loop_
  _symmetry_equiv_pos_site_id
 _symmetry_equiv_pos_as_xyz
 1  'x, y, z'
loop_
 _atom_site_type_symbol
 _atom_site_label
 _atom_site_symmetry_multiplicity
 _atom_site_fract_x
 _atom_site_fract_y
 _atom_site_fract_z
 _atom_site_fract_occupancy
 Ge  Ge1  1  0.75000  0.25000  0.50000  1
 S  S1  1  0.52708  0.02708  0.50000  1
 S  S2  1  0.23832  0.23832  -0.00000  1
 S  S3  1  0.97292  0.47292  0.50000  1
 S  S4  1  0.76168  0.76168  -0.00000  1
 Sn  Sn1  1  0.00000  0.00000  0.00000  1
