CIF file written using JARVIS-Tools package.
data_V4O3F9
_symmetry_space_group_name_H-M  'P2'
_cell_length_a       5.09878
_cell_length_b       7.07984
_cell_length_c       5.3363
_cell_angle_alpha    94.3492
_cell_angle_beta     90
_cell_angle_gamma    90

_symmetry_Int_Tables_number  3
_chemical_formula_structural  V4O3F9
_chemical_formula_sum  V4O3F9
_cell_volume  192.0778093121765
_cell_formula_units_Z  1
loop_
  _symmetry_equiv_pos_site_id
 _symmetry_equiv_pos_as_xyz
 1  'x, y, z'
loop_
 _atom_site_type_symbol
 _atom_site_label
 _atom_site_symmetry_multiplicity
 _atom_site_fract_x
 _atom_site_fract_y
 _atom_site_fract_z
 _atom_site_fract_occupancy
 F  F1  1  0.88056  0.25000  -0.00000  1
 F  F2  1  0.82003  0.55177  0.31477  1
 F  F3  1  0.82003  0.94823  0.68523  1
 F  F4  1  0.68726  0.94501  0.18229  1
 F  F5  1  0.68726  0.55499  0.81771  1
 F  F6  1  0.31153  0.43882  0.18369  1
 F  F7  1  0.31153  0.06118  0.81631  1
 F  F8  1  0.18286  0.05786  0.31267  1
 F  F9  1  0.18286  0.44214  0.68733  1
 O  O1  1  0.58391  0.25000  0.50000  1
 O  O2  1  0.41777  0.75000  0.50000  1
 O  O3  1  0.09176  0.75000  -0.00000  1
 V  V1  1  0.50256  0.49945  0.50078  1
 V  V2  1  0.50256  0.00055  0.49922  1
 V  V3  1  0.00877  0.50995  0.00017  1
 V  V4  1  0.00877  0.99005  -0.00017  1
