CIF file written using JARVIS-Tools package.
data_NaLi3V4O12
_symmetry_space_group_name_H-M  'C2'
_cell_length_a       6.73791
_cell_length_b       6.73791
_cell_length_c       5.86295
_cell_angle_alpha    74.5391
_cell_angle_beta     74.5391
_cell_angle_gamma    80.9964

_symmetry_Int_Tables_number  5
_chemical_formula_structural  NaLi3V4O12
_chemical_formula_sum  NaLi3V4O2
_cell_volume  246.2112345616353
_cell_formula_units_Z  1
loop_
  _symmetry_equiv_pos_site_id
 _symmetry_equiv_pos_as_xyz
 1  'x, y, z'
loop_
 _atom_site_type_symbol
 _atom_site_label
 _atom_site_symmetry_multiplicity
 _atom_site_fract_x
 _atom_site_fract_y
 _atom_site_fract_z
 _atom_site_fract_occupancy
 Li  Li1  1  0.92129  0.07871  0.50000  1
 Li  Li2  1  0.08881  0.91119  -0.00000  1
 Li  Li3  1  0.27227  0.72773  0.50000  1
 Na  Na1  1  0.71344  0.28656  0.00000  1
 O  O1  1  0.90664  0.37417  0.54320  1
 O  O2  1  0.01984  0.20296  0.10423  1
 O  O3  1  0.06945  0.61583  0.97472  1
 O  O4  1  0.38417  0.93055  0.02528  1
 O  O5  1  0.62583  0.09336  0.45680  1
 O  O6  1  0.33338  0.37757  0.68799  1
 O  O7  1  0.36483  0.34358  0.19646  1
 O  O8  1  0.99923  0.77503  0.40955  1
 O  O9  1  0.62243  0.66662  0.31201  1
 O  O10  1  0.22497  0.00077  0.59045  1
 O  O11  1  0.65642  0.63517  0.80354  1
 O  O12  1  0.79704  0.98016  0.89577  1
 V  V1  1  0.62023  0.80865  0.00341  1
 V  V2  1  0.19135  0.37977  0.99659  1
 V  V3  1  0.38164  0.19327  0.49661  1
 V  V4  1  0.80673  0.61836  0.50339  1
