CIF file written using JARVIS-Tools package.
data_V4O5F7
_symmetry_space_group_name_H-M  'C2'
_cell_length_a       5.12857
_cell_length_b       5.2315
_cell_length_c       8.64581
_cell_angle_alpha    75.124
_cell_angle_beta     90
_cell_angle_gamma    60.6488

_symmetry_Int_Tables_number  5
_chemical_formula_structural  V4O5F7
_chemical_formula_sum  V4O5F7
_cell_volume  193.22125958742643
_cell_formula_units_Z  1
loop_
  _symmetry_equiv_pos_site_id
 _symmetry_equiv_pos_as_xyz
 1  'x, y, z'
loop_
 _atom_site_type_symbol
 _atom_site_label
 _atom_site_symmetry_multiplicity
 _atom_site_fract_x
 _atom_site_fract_y
 _atom_site_fract_z
 _atom_site_fract_occupancy
 F  F1  1  0.92621  0.76004  0.57630  1
 F  F2  1  0.93625  0.73996  0.17370  1
 F  F3  1  0.56843  0.25338  0.32459  1
 F  F4  1  0.56813  0.24402  0.93021  1
 F  F5  1  0.02049  0.75000  0.87500  1
 F  F6  1  0.06215  0.25598  0.81979  1
 F  F7  1  0.07180  0.24662  0.42541  1
 O  O1  1  0.96601  0.23959  0.12556  1
 O  O2  1  0.54510  0.75000  0.37500  1
 O  O3  1  0.42059  0.74906  0.07744  1
 O  O4  1  0.41965  0.75094  0.67256  1
 O  O5  1  0.45560  0.26041  0.62444  1
 V  V1  1  0.72227  0.52255  0.24354  1
 V  V2  1  0.49481  0.97745  0.50646  1
 V  V3  1  0.28836  0.49579  0.73951  1
 V  V4  1  0.03416  0.00421  0.01049  1
