CIF file written using JARVIS-Tools package.
data_SnH10C6O6
_symmetry_space_group_name_H-M  'P-1'
_cell_length_a       4.69893
_cell_length_b       6.59919
_cell_length_c       7.08816
_cell_angle_alpha    97.0538
_cell_angle_beta     98.4791
_cell_angle_gamma    98.5083

_symmetry_Int_Tables_number  2
_chemical_formula_structural  SnH10C6O6
_chemical_formula_sum  SnH0C6O6
_cell_volume  212.6402116236892
_cell_formula_units_Z  1
loop_
  _symmetry_equiv_pos_site_id
 _symmetry_equiv_pos_as_xyz
 1  'x, y, z'
loop_
 _atom_site_type_symbol
 _atom_site_label
 _atom_site_symmetry_multiplicity
 _atom_site_fract_x
 _atom_site_fract_y
 _atom_site_fract_z
 _atom_site_fract_occupancy
 C  C1  1  0.79933  0.99412  0.92659  1
 C  C2  1  0.69695  0.55718  0.50694  1
 C  C3  1  0.65154  0.83894  0.03394  1
 C  C4  1  0.75563  0.27670  0.71798  1
 C  C5  1  0.54916  0.40199  0.61429  1
 C  C6  1  0.59285  0.11940  0.82288  1
 H  H1  1  0.42080  0.01479  0.71867  1
 H  H2  1  0.92886  0.94209  0.44402  1
 H  H3  1  0.48240  0.19863  0.92902  1
 H  H4  1  0.86606  0.19748  0.61183  1
 H  H5  1  0.92768  0.38131  0.82219  1
 H  H6  1  0.42906  0.48312  0.71313  1
 H  H7  1  0.38087  0.29754  0.50528  1
 H  H8  1  0.91943  0.91299  0.82775  1
 H  H9  1  0.96761  0.09859  0.03559  1
 H  H10  1  0.41962  0.45400  0.09687  1
 O  O1  1  0.40926  0.86940  0.08407  1
 O  O2  1  0.23338  0.42580  0.14370  1
 O  O3  1  0.58246  0.71705  0.46770  1
 O  O4  1  0.93922  0.52672  0.45680  1
 O  O5  1  0.76604  0.67909  0.07320  1
 O  O6  1  0.11510  0.97031  0.39719  1
 Sn  Sn1  1  0.17425  0.69806  0.27044  1
