CIF file written using JARVIS-Tools package.
data_NaSrMg2F7
_symmetry_space_group_name_H-M  'Imma'
_cell_length_a       7.38622
_cell_length_b       7.38623
_cell_length_c       7.38622
_cell_angle_alpha    120.785
_cell_angle_beta     118.709
_cell_angle_gamma    90.4485

_symmetry_Int_Tables_number  74
_chemical_formula_structural  NaSrMg2F7
_chemical_formula_sum  Na2Sr2Mg4F4
_cell_volume  285.90490220269777
_cell_formula_units_Z  2
loop_
  _symmetry_equiv_pos_site_id
 _symmetry_equiv_pos_as_xyz
 1  'x, y, z'
loop_
 _atom_site_type_symbol
 _atom_site_label
 _atom_site_symmetry_multiplicity
 _atom_site_fract_x
 _atom_site_fract_y
 _atom_site_fract_z
 _atom_site_fract_occupancy
 F  F1  1  0.18123  0.43123  0.75000  1
 F  F2  1  0.11475  0.86475  0.25000  1
 F  F3  1  0.88525  0.13525  0.75000  1
 F  F4  1  0.56900  0.82638  0.14706  1
 F  F5  1  0.81877  0.56877  0.25000  1
 F  F6  1  0.43100  0.57805  0.25738  1
 F  F7  1  0.42131  0.17131  0.25000  1
 F  F8  1  0.43100  0.17362  0.85294  1
 F  F9  1  0.82068  0.57805  0.64706  1
 F  F10  1  0.57869  0.82869  0.75000  1
 F  F11  1  0.17932  0.42195  0.35294  1
 F  F12  1  0.56900  0.42195  0.74262  1
 F  F13  1  0.17932  0.82638  0.75738  1
 F  F14  1  0.82068  0.17362  0.24262  1
 Mg  Mg1  1  0.00000  0.50000  0.50000  1
 Mg  Mg2  1  0.50000  0.50000  -0.00000  1
 Mg  Mg3  1  0.50000  0.00000  0.00000  1
 Mg  Mg4  1  0.50000  0.50000  0.50000  1
 Na  Na1  1  -0.00000  0.50000  0.00000  1
 Na  Na2  1  -0.00000  0.00000  0.50000  1
 Sr  Sr1  1  0.50000  -0.00000  0.50000  1
 Sr  Sr2  1  0.00000  0.00000  0.00000  1
