CIF file written using JARVIS-Tools package.
data_Li4Mn3Nb2Cu3O16
_symmetry_space_group_name_H-M  'P1'
_cell_length_a       5.81686
_cell_length_b       5.8213
_cell_length_c       9.68866
_cell_angle_alpha    90.0118
_cell_angle_beta     88.1643
_cell_angle_gamma    117.701

_symmetry_Int_Tables_number  1
_chemical_formula_structural  Li4Mn3Nb2Cu3O16
_chemical_formula_sum  Li4Mn3Nb2Cu3O6
_cell_volume  290.2846591124795
_cell_formula_units_Z  1
loop_
  _symmetry_equiv_pos_site_id
 _symmetry_equiv_pos_as_xyz
 1  'x, y, z'
loop_
 _atom_site_type_symbol
 _atom_site_label
 _atom_site_symmetry_multiplicity
 _atom_site_fract_x
 _atom_site_fract_y
 _atom_site_fract_z
 _atom_site_fract_occupancy
 Cu  Cu1  1  0.33793  0.16615  0.71435  1
 Cu  Cu2  1  0.16214  0.33693  0.20767  1
 Cu  Cu3  1  0.16442  0.83107  0.21258  1
 Li  Li1  1  0.34124  0.68167  0.90463  1
 Li  Li2  1  0.99510  0.99106  0.48535  1
 Li  Li3  1  0.98022  0.99291  0.99373  1
 Li  Li4  1  0.68083  0.32726  0.40412  1
 Mn  Mn1  1  0.65541  0.83270  0.22163  1
 Mn  Mn2  1  0.83090  0.66191  0.71437  1
 Mn  Mn3  1  0.82637  0.16178  0.71686  1
 Nb  Nb1  1  0.31766  0.63770  0.48814  1
 Nb  Nb2  1  0.65710  0.34386  0.99487  1
 O  O1  1  0.15915  0.31314  0.59957  1
 O  O2  1  0.14055  0.80498  0.58755  1
 O  O3  1  0.96706  0.47629  0.82885  1
 O  O4  1  0.34814  0.67236  0.12002  1
 O  O5  1  0.98836  0.00337  0.29659  1
 O  O6  1  0.98782  0.98670  0.80553  1
 O  O7  1  0.04417  0.48394  0.35940  1
 O  O8  1  0.82372  0.66758  0.09873  1
 O  O9  1  0.68098  0.84582  0.60833  1
 O  O10  1  0.55721  0.53220  0.84127  1
 O  O11  1  0.53255  0.04631  0.83462  1
 O  O12  1  0.68580  0.34634  0.61517  1
 O  O13  1  0.48961  0.96609  0.34262  1
 O  O14  1  0.31523  0.19339  0.06675  1
 O  O15  1  0.55186  0.56647  0.35581  1
 O  O16  1  0.77849  0.13031  0.08869  1
