CIF file written using JARVIS-Tools package.
data_Li4FeNi3P4O16
_symmetry_space_group_name_H-M  'Pm'
_cell_length_a       5.91313
_cell_length_b       4.69401
_cell_length_c       10.0792
_cell_angle_alpha    89.8521
_cell_angle_beta     90
_cell_angle_gamma    90

_symmetry_Int_Tables_number  6
_chemical_formula_structural  Li4FeNi3P4O16
_chemical_formula_sum  Li4FeNi3P4O6
_cell_volume  279.75964043801383
_cell_formula_units_Z  1
loop_
  _symmetry_equiv_pos_site_id
 _symmetry_equiv_pos_as_xyz
 1  'x, y, z'
loop_
 _atom_site_type_symbol
 _atom_site_label
 _atom_site_symmetry_multiplicity
 _atom_site_fract_x
 _atom_site_fract_y
 _atom_site_fract_z
 _atom_site_fract_occupancy
 Fe  Fe1  1  0.00000  0.97800  0.27832  1
 Li  Li1  1  0.25092  -0.00109  0.99655  1
 Li  Li2  1  0.74908  -0.00109  0.99655  1
 Li  Li3  1  0.74686  0.50096  0.50539  1
 Li  Li4  1  0.25314  0.50096  0.50539  1
 Ni  Ni1  1  0.50000  0.01689  0.72547  1
 Ni  Ni2  1  0.50000  0.47818  0.22261  1
 Ni  Ni3  1  0.00000  0.51956  0.77550  1
 O  O1  1  0.20923  0.22247  0.66603  1
 O  O2  1  0.20676  0.27469  0.16435  1
 O  O3  1  0.50000  0.25250  0.90310  1
 O  O4  1  0.00000  0.20730  0.45215  1
 O  O5  1  0.79077  0.22247  0.66603  1
 O  O6  1  0.29135  0.78603  0.33381  1
 O  O7  1  0.00000  0.29209  0.94864  1
 O  O8  1  0.50000  0.24990  0.40395  1
 O  O9  1  0.50000  0.70214  0.04901  1
 O  O10  1  0.00000  0.75563  0.59667  1
 O  O11  1  0.29174  0.72137  0.83427  1
 O  O12  1  0.00000  0.74226  0.09549  1
 O  O13  1  0.79324  0.27469  0.16435  1
 O  O14  1  0.70865  0.78603  0.33381  1
 O  O15  1  0.70826  0.72137  0.83427  1
 O  O16  1  0.50000  0.79549  0.54873  1
 P  P1  1  0.00000  0.08238  0.59593  1
 P  P2  1  0.00000  0.41603  0.09114  1
 P  P3  1  0.50000  0.57923  0.90583  1
 P  P4  1  0.50000  0.92358  0.40668  1
