CIF file written using JARVIS-Tools package.
data_CaH8C6O4
_symmetry_space_group_name_H-M  'P-1'
_cell_length_a       3.71529
_cell_length_b       4.65541
_cell_length_c       10.106
_cell_angle_alpha    91.6017
_cell_angle_beta     93.9871
_cell_angle_gamma    106.207

_symmetry_Int_Tables_number  2
_chemical_formula_structural  CaH8C6O4
_chemical_formula_sum  CaH8C6O4
_cell_volume  167.23755824313398
_cell_formula_units_Z  1
loop_
  _symmetry_equiv_pos_site_id
 _symmetry_equiv_pos_as_xyz
 1  'x, y, z'
loop_
 _atom_site_type_symbol
 _atom_site_label
 _atom_site_symmetry_multiplicity
 _atom_site_fract_x
 _atom_site_fract_y
 _atom_site_fract_z
 _atom_site_fract_occupancy
 C  C1  1  0.44927  0.70568  0.88609  1
 C  C2  1  0.57494  0.37356  0.54001  1
 C  C3  1  0.31157  0.58667  0.01724  1
 C  C4  1  0.71247  0.49252  0.40883  1
 C  C5  1  0.57388  0.60975  0.64770  1
 C  C6  1  0.45034  0.46951  0.77839  1
 Ca  Ca1  1  0.01198  0.03960  0.21303  1
 H  H1  1  0.38622  0.74159  0.61204  1
 H  H2  1  0.85618  0.76879  0.66425  1
 H  H3  1  0.75785  0.23522  0.57376  1
 H  H4  1  0.63800  0.33767  0.81404  1
 H  H5  1  0.16803  0.31048  0.76183  1
 H  H6  1  0.72810  0.86763  0.90616  1
 H  H7  1  0.26647  0.84410  0.85233  1
 H  H8  1  0.29614  0.21154  0.51997  1
 O  O1  1  0.11170  0.32075  0.02281  1
 O  O2  1  0.39944  0.77465  0.11963  1
 O  O3  1  0.91231  0.75844  0.40324  1
 O  O4  1  0.62450  0.30452  0.30645  1
