CIF file written using JARVIS-Tools package.
data_Li2Mn3CrO8
_symmetry_space_group_name_H-M  'R-3m'
_cell_length_a       5.76838
_cell_length_b       5.76838
_cell_length_c       5.76838
_cell_angle_alpha    59.6573
_cell_angle_beta     59.6573
_cell_angle_gamma    59.6573

_symmetry_Int_Tables_number  166
_chemical_formula_structural  Li2Mn3CrO8
_chemical_formula_sum  Li2Mn3CrO8
_cell_volume  134.66398757228902
_cell_formula_units_Z  1
loop_
  _symmetry_equiv_pos_site_id
 _symmetry_equiv_pos_as_xyz
 1  'x, y, z'
loop_
 _atom_site_type_symbol
 _atom_site_label
 _atom_site_symmetry_multiplicity
 _atom_site_fract_x
 _atom_site_fract_y
 _atom_site_fract_z
 _atom_site_fract_occupancy
 Cr  Cr1  1  0.50000  0.50000  0.50000  1
 Li  Li1  1  0.12379  0.12379  0.12379  1
 Li  Li2  1  0.87621  0.87621  0.87621  1
 Mn  Mn1  1  0.00000  0.50000  0.50000  1
 Mn  Mn2  1  0.50000  0.50000  0.00000  1
 Mn  Mn3  1  0.50000  0.00000  0.50000  1
 O  O1  1  0.26219  0.26219  0.26219  1
 O  O2  1  0.71479  0.25847  0.25847  1
 O  O3  1  0.25847  0.25847  0.71479  1
 O  O4  1  0.25847  0.71479  0.25847  1
 O  O5  1  0.74153  0.28521  0.74153  1
 O  O6  1  0.74153  0.74153  0.28521  1
 O  O7  1  0.73781  0.73781  0.73781  1
 O  O8  1  0.28521  0.74153  0.74153  1
