CIF file written using JARVIS-Tools package.
data_AlCuO
_symmetry_space_group_name_H-M  'P-6m2'
_cell_length_a       3.96203
_cell_length_b       3.96203
_cell_length_c       2.87476
_cell_angle_alpha    90
_cell_angle_beta     90
_cell_angle_gamma    120

_symmetry_Int_Tables_number  187
_chemical_formula_structural  AlCuO
_chemical_formula_sum  AlCuO
_cell_volume  39.08112460147778
_cell_formula_units_Z  1
loop_
  _symmetry_equiv_pos_site_id
 _symmetry_equiv_pos_as_xyz
 1  'x, y, z'
loop_
 _atom_site_type_symbol
 _atom_site_label
 _atom_site_symmetry_multiplicity
 _atom_site_fract_x
 _atom_site_fract_y
 _atom_site_fract_z
 _atom_site_fract_occupancy
 Al  Al1  1  0.00000  0.00000  0.00000  1
 Cu  Cu1  1  0.33333  0.66667  0.00000  1
 O  O1  1  0.66667  0.33333  0.00000  1
