CIF file written using JARVIS-Tools package.
data_Mn2CoO4
_symmetry_space_group_name_H-M  'Fd-3m'
_cell_length_a       5.89093
_cell_length_b       5.89081
_cell_length_c       5.8862
_cell_angle_alpha    59.9753
_cell_angle_beta     59.975
_cell_angle_gamma    90.0036

_symmetry_Int_Tables_number  227
_chemical_formula_structural  Mn2CoO4
_chemical_formula_sum  Mn4Co2O8
_cell_volume  144.32412235775027
_cell_formula_units_Z  2
loop_
  _symmetry_equiv_pos_site_id
 _symmetry_equiv_pos_as_xyz
 1  'x, y, z'
loop_
 _atom_site_type_symbol
 _atom_site_label
 _atom_site_symmetry_multiplicity
 _atom_site_fract_x
 _atom_site_fract_y
 _atom_site_fract_z
 _atom_site_fract_occupancy
 Co  Co1  1  0.25001  0.75000  0.50000  1
 Co  Co2  1  -0.00000  -0.00000  -0.00000  1
 Mn  Mn1  1  0.62500  0.37500  0.75000  1
 Mn  Mn2  1  0.62500  0.37500  0.25000  1
 Mn  Mn3  1  0.12500  0.37500  0.25000  1
 Mn  Mn4  1  0.62500  0.87500  0.75000  1
 O  O1  1  0.40074  0.13347  0.73307  1
 O  O2  1  0.86619  0.13348  0.73306  1
 O  O3  1  0.38381  0.61652  0.76694  1
 O  O4  1  0.84926  0.61653  0.76693  1
 O  O5  1  0.86653  0.13381  0.26694  1
 O  O6  1  0.86653  0.59924  0.26693  1
 O  O7  1  0.38347  0.15076  0.23307  1
 O  O8  1  0.38347  0.61619  0.23306  1
