CIF file written using JARVIS-Tools package.
data_ZnH2C3O4
_symmetry_space_group_name_H-M  'P1'
_cell_length_a       4.35885
_cell_length_b       4.12115
_cell_length_c       6.03445
_cell_angle_alpha    74.0419
_cell_angle_beta     85.8843
_cell_angle_gamma    70.0393

_symmetry_Int_Tables_number  1
_chemical_formula_structural  ZnH2C3O4
_chemical_formula_sum  ZnH2C3O4
_cell_volume  97.93201133723053
_cell_formula_units_Z  1
loop_
  _symmetry_equiv_pos_site_id
 _symmetry_equiv_pos_as_xyz
 1  'x, y, z'
loop_
 _atom_site_type_symbol
 _atom_site_label
 _atom_site_symmetry_multiplicity
 _atom_site_fract_x
 _atom_site_fract_y
 _atom_site_fract_z
 _atom_site_fract_occupancy
 C  C1  1  0.03269  0.50656  0.67268  1
 C  C2  1  0.97655  0.64854  0.88437  1
 C  C3  1  0.90924  0.37388  0.09119  1
 H  H1  1  0.19899  0.69296  0.92175  1
 H  H2  1  0.76448  0.89390  0.85546  1
 O  O1  1  -0.18401  0.62286  0.51267  1
 O  O2  1  0.30533  0.26101  0.66661  1
 O  O3  1  0.13352  0.09878  0.20282  1
 O  O4  1  0.60934  0.43425  0.13891  1
 Zn  Zn1  1  0.48477  0.09492  0.39275  1
