CIF file written using JARVIS-Tools package.
data_MgMo6Se8
_symmetry_space_group_name_H-M  'P1'
_cell_length_a       6.8157
_cell_length_b       6.82622
_cell_length_c       6.85356
_cell_angle_alpha    90.4495
_cell_angle_beta     95.0101
_cell_angle_gamma    95.5074

_symmetry_Int_Tables_number  1
_chemical_formula_structural  MgMo6Se8
_chemical_formula_sum  MgMo6Se8
_cell_volume  316.1379741021865
_cell_formula_units_Z  1
loop_
  _symmetry_equiv_pos_site_id
 _symmetry_equiv_pos_as_xyz
 1  'x, y, z'
loop_
 _atom_site_type_symbol
 _atom_site_label
 _atom_site_symmetry_multiplicity
 _atom_site_fract_x
 _atom_site_fract_y
 _atom_site_fract_z
 _atom_site_fract_occupancy
 Mg  Mg1  1  0.87099  0.08524  0.00418  1
 Mo  Mo1  1  0.58482  0.44885  0.76311  1
 Mo  Mo2  1  0.40958  0.55227  0.23556  1
 Mo  Mo3  1  0.46038  0.76338  0.58108  1
 Mo  Mo4  1  0.54090  0.23703  0.42219  1
 Mo  Mo5  1  0.76639  0.59073  0.45485  1
 Mo  Mo6  1  0.23414  0.41004  0.54451  1
 Se  Se1  1  0.80757  0.77463  0.78209  1
 Se  Se2  1  0.20362  0.21296  0.21706  1
 Se  Se3  1  0.87199  0.26290  0.63558  1
 Se  Se4  1  0.13128  0.73229  0.36536  1
 Se  Se5  1  0.62909  0.88471  0.26064  1
 Se  Se6  1  0.37369  0.11292  0.73614  1
 Se  Se7  1  0.27342  0.61298  0.86395  1
 Se  Se8  1  0.72614  0.39407  0.13470  1
