CIF file written using JARVIS-Tools package.
data_Lu3BiRu4O14
_symmetry_space_group_name_H-M  'R-3m'
_cell_length_a       7.17169
_cell_length_b       7.1717
_cell_length_c       7.15365
_cell_angle_alpha    90
_cell_angle_beta     59.9165
_cell_angle_gamma    120

_symmetry_Int_Tables_number  166
_chemical_formula_structural  Lu3BiRu4O14
_chemical_formula_sum  Lu3BiRu4O4
_cell_volume  259.84081876507327
_cell_formula_units_Z  1
loop_
  _symmetry_equiv_pos_site_id
 _symmetry_equiv_pos_as_xyz
 1  'x, y, z'
loop_
 _atom_site_type_symbol
 _atom_site_label
 _atom_site_symmetry_multiplicity
 _atom_site_fract_x
 _atom_site_fract_y
 _atom_site_fract_z
 _atom_site_fract_occupancy
 Bi  Bi1  1  0.75000  0.37500  0.87500  1
 Lu  Lu1  1  0.25000  0.37500  0.37500  1
 Lu  Lu2  1  0.25000  0.87500  0.37500  1
 Lu  Lu3  1  0.75000  0.37500  0.37500  1
 O  O1  1  0.48647  0.24324  0.27029  1
 O  O2  1  0.01353  0.50676  0.47971  1
 O  O3  1  0.00634  0.79456  0.78188  1
 O  O4  1  0.50055  0.53875  0.53765  1
 O  O5  1  0.50055  0.96180  0.53765  1
 O  O6  1  0.92360  0.96180  0.53765  1
 O  O7  1  0.49366  0.95544  0.96812  1
 O  O8  1  0.49366  0.53822  0.96812  1
 O  O9  1  -0.00055  0.21125  0.21235  1
 O  O10  1  0.07644  0.53822  0.96812  1
 O  O11  1  -0.00055  0.78820  0.21235  1
 O  O12  1  0.42356  0.21178  0.78188  1
 O  O13  1  0.57640  0.78820  0.21235  1
 O  O14  1  0.00634  0.21178  0.78188  1
 Ru  Ru1  1  0.75000  0.87500  0.87500  1
 Ru  Ru2  1  0.25000  0.37500  0.87500  1
 Ru  Ru3  1  0.25000  0.87500  0.87500  1
 Ru  Ru4  1  0.75000  0.87500  0.37500  1
