CIF file written using JARVIS-Tools package.
data_CdH10C7O4
_symmetry_space_group_name_H-M  'P1'
_cell_length_a       3.77726
_cell_length_b       4.34607
_cell_length_c       11.1986
_cell_angle_alpha    92.7004
_cell_angle_beta     96.5124
_cell_angle_gamma    100.805

_symmetry_Int_Tables_number  1
_chemical_formula_structural  CdH10C7O4
_chemical_formula_sum  CdH0C7O4
_cell_volume  178.9735960812857
_cell_formula_units_Z  1
loop_
  _symmetry_equiv_pos_site_id
 _symmetry_equiv_pos_as_xyz
 1  'x, y, z'
loop_
 _atom_site_type_symbol
 _atom_site_label
 _atom_site_symmetry_multiplicity
 _atom_site_fract_x
 _atom_site_fract_y
 _atom_site_fract_z
 _atom_site_fract_occupancy
 C  C1  1  0.27247  0.25449  0.97466  1
 C  C2  1  0.16374  0.13068  0.09214  1
 C  C3  1  0.16365  0.36419  0.19833  1
 C  C4  1  0.05998  0.18691  0.30826  1
 C  C5  1  0.03775  0.39339  0.42066  1
 C  C6  1  0.91389  0.19206  0.52230  1
 C  C7  1  0.86913  0.37088  0.63668  1
 Cd  Cd1  1  0.59691  0.76807  0.80062  1
 H  H1  1  0.10882  0.04173  0.54863  1
 H  H2  1  0.30365  0.54473  0.45151  1
 H  H3  1  0.35217  0.97186  0.11662  1
 H  H4  1  0.89764  0.97312  0.07151  1
 H  H5  1  0.79507  0.02753  0.28294  1
 H  H6  1  0.25432  0.03218  0.33083  1
 H  H7  1  0.43253  0.51808  0.21985  1
 H  H8  1  0.96940  0.51650  0.17352  1
 H  H9  1  0.84899  0.55261  0.39837  1
 H  H10  1  0.65493  0.03032  0.49219  1
 O  O1  1  0.05374  0.64911  0.66416  1
 O  O2  1  0.47729  0.52221  0.97448  1
 O  O3  1  0.63421  0.25017  0.70325  1
 O  O4  1  0.16611  0.06773  0.87926  1
