CIF file written using JARVIS-Tools package.
data_ZnH6C5O4
_symmetry_space_group_name_H-M  'P1'
_cell_length_a       3.9044
_cell_length_b       4.72938
_cell_length_c       8.26216
_cell_angle_alpha    90.7269
_cell_angle_beta     97.6559
_cell_angle_gamma    111.423

_symmetry_Int_Tables_number  1
_chemical_formula_structural  ZnH6C5O4
_chemical_formula_sum  ZnH6C5O4
_cell_volume  140.4456053344885
_cell_formula_units_Z  1
loop_
  _symmetry_equiv_pos_site_id
 _symmetry_equiv_pos_as_xyz
 1  'x, y, z'
loop_
 _atom_site_type_symbol
 _atom_site_label
 _atom_site_symmetry_multiplicity
 _atom_site_fract_x
 _atom_site_fract_y
 _atom_site_fract_z
 _atom_site_fract_occupancy
 C  C1  1  0.00404  0.16177  0.48212  1
 C  C2  1  0.04250  0.38327  0.62274  1
 C  C3  1  0.89289  0.23251  0.77500  1
 C  C4  1  0.94945  0.47522  0.90995  1
 C  C5  1  0.80940  0.36593  0.06854  1
 H  H1  1  0.33493  0.53734  0.65046  1
 H  H2  1  0.88462  0.52329  0.57383  1
 H  H3  1  0.04089  0.08395  0.81947  1
 H  H4  1  0.24374  0.62499  0.93887  1
 H  H5  1  0.59729  0.08764  0.74386  1
 H  H6  1  0.80576  0.62871  0.86692  1
 O  O1  1  0.26010  0.23528  0.39257  1
 O  O2  1  0.71582  0.91436  0.45575  1
 O  O3  1  0.58040  0.09123  0.06936  1
 O  O4  1  0.90622  0.55087  0.19481  1
 Zn  Zn1  1  0.34642  0.91803  0.26455  1
