CIF file written using JARVIS-Tools package.
data_CdH10C7O4
_symmetry_space_group_name_H-M  'P1'
_cell_length_a       3.81165
_cell_length_b       4.54411
_cell_length_c       11.3574
_cell_angle_alpha    80.6267
_cell_angle_beta     79.3117
_cell_angle_gamma    72.8465

_symmetry_Int_Tables_number  1
_chemical_formula_structural  CdH10C7O4
_chemical_formula_sum  CdH0C7O4
_cell_volume  183.47435040480008
_cell_formula_units_Z  1
loop_
  _symmetry_equiv_pos_site_id
 _symmetry_equiv_pos_as_xyz
 1  'x, y, z'
loop_
 _atom_site_type_symbol
 _atom_site_label
 _atom_site_symmetry_multiplicity
 _atom_site_fract_x
 _atom_site_fract_y
 _atom_site_fract_z
 _atom_site_fract_occupancy
 C  C1  1  0.32474  0.38776  0.02894  1
 C  C2  1  0.47903  0.26756  0.90714  1
 C  C3  1  0.36471  0.50125  0.79838  1
 C  C4  1  0.38643  0.35003  0.68519  1
 C  C5  1  0.24092  0.58964  0.58153  1
 C  C6  1  0.16839  0.45099  0.47560  1
 C  C7  1  0.47833  0.39218  0.37019  1
 Cd  Cd1  1  0.94522  0.89185  0.20206  1
 H  H1  1  0.92925  0.61663  0.44006  1
 H  H2  1  -0.02762  0.74116  0.61806  1
 H  H3  1  0.38631  0.05806  0.91062  1
 H  H4  1  0.78248  0.18018  0.90256  1
 H  H5  1  0.67179  0.21253  0.65704  1
 H  H6  1  0.21708  0.18385  0.70767  1
 H  H7  1  0.07760  0.64110  0.82243  1
 H  H8  1  0.53475  0.66624  0.77880  1
 H  H9  1  0.42294  0.74271  0.54870  1
 H  H10  1  0.09831  0.23239  0.50861  1
 O  O1  1  0.71001  0.12654  0.37002  1
 O  O2  1  0.13659  0.66911  0.03087  1
 O  O3  1  0.49009  0.61497  0.28439  1
 O  O4  1  0.38039  0.19603  0.12498  1
