CIF file written using JARVIS-Tools package.
data_Li5Mn7O15
_symmetry_space_group_name_H-M  'Cm'
_cell_length_a       5.80479
_cell_length_b       5.80478
_cell_length_c       9.85745
_cell_angle_alpha    73.4486
_cell_angle_beta     73.4487
_cell_angle_gamma    59.9481

_symmetry_Int_Tables_number  8
_chemical_formula_structural  Li5Mn7O15
_chemical_formula_sum  Li5Mn7O5
_cell_volume  271.5101565058579
_cell_formula_units_Z  1
loop_
  _symmetry_equiv_pos_site_id
 _symmetry_equiv_pos_as_xyz
 1  'x, y, z'
loop_
 _atom_site_type_symbol
 _atom_site_label
 _atom_site_symmetry_multiplicity
 _atom_site_fract_x
 _atom_site_fract_y
 _atom_site_fract_z
 _atom_site_fract_occupancy
 Li  Li1  1  0.81700  0.81700  0.06922  1
 Li  Li2  1  0.24426  0.24426  0.23910  1
 Li  Li3  1  0.30096  0.30096  0.58960  1
 Li  Li4  1  0.68335  0.68335  0.43399  1
 Li  Li5  1  0.18523  0.18523  0.93409  1
 Mn  Mn1  1  0.49411  0.49411  0.00518  1
 Mn  Mn2  1  0.24846  0.76775  0.24112  1
 Mn  Mn3  1  0.76775  0.24846  0.24112  1
 Mn  Mn4  1  -0.00034  -0.00034  0.49554  1
 Mn  Mn5  1  0.74652  0.24708  0.75163  1
 Mn  Mn6  1  0.74683  0.74683  0.75168  1
 Mn  Mn7  1  0.24708  0.74652  0.75163  1
 O  O1  1  0.60494  0.60494  0.13726  1
 O  O2  1  0.39236  0.84015  0.86840  1
 O  O3  1  0.16427  0.61436  0.13156  1
 O  O4  1  0.33527  0.87289  0.37731  1
 O  O5  1  0.11649  0.11649  0.13362  1
 O  O6  1  0.87289  0.33527  0.37731  1
 O  O7  1  0.84015  0.39236  0.86840  1
 O  O8  1  0.10238  0.10238  0.63144  1
 O  O9  1  0.10104  0.65345  0.63306  1
 O  O10  1  0.87879  0.87879  0.85755  1
 O  O11  1  0.65345  0.10104  0.63306  1
 O  O12  1  0.89236  0.89236  0.36548  1
 O  O13  1  0.61505  0.61505  0.64569  1
 O  O14  1  0.61436  0.16427  0.13156  1
 O  O15  1  0.39157  0.39157  0.87044  1
