CIF file written using JARVIS-Tools package.
data_MgHO
_symmetry_space_group_name_H-M  'Pm'
_cell_length_a       5.71875
_cell_length_b       3.23748
_cell_length_c       3.36908
_cell_angle_alpha    90
_cell_angle_beta     90
_cell_angle_gamma    59.1782

_symmetry_Int_Tables_number  6
_chemical_formula_structural  MgHO
_chemical_formula_sum  MgHO
_cell_volume  53.566626101354856
_cell_formula_units_Z  1
loop_
  _symmetry_equiv_pos_site_id
 _symmetry_equiv_pos_as_xyz
 1  'x, y, z'
loop_
 _atom_site_type_symbol
 _atom_site_label
 _atom_site_symmetry_multiplicity
 _atom_site_fract_x
 _atom_site_fract_y
 _atom_site_fract_z
 _atom_site_fract_occupancy
 H  H1  1  -0.11727  0.06064  0.00000  1
 Mg  Mg1  1  0.29459  0.18748  0.00000  1
 O  O1  1  0.08229  -0.12030  0.00000  1
