CIF file written using JARVIS-Tools package.
data_La2UTe5
_symmetry_space_group_name_H-M  'C2'
_cell_length_a       10.0008
_cell_length_b       10.0008
_cell_length_c       8.97128
_cell_angle_alpha    89.2987
_cell_angle_beta     89.2987
_cell_angle_gamma    36.6941

_symmetry_Int_Tables_number  5
_chemical_formula_structural  La2UTe5
_chemical_formula_sum  La4U2Te0
_cell_volume  536.1093889047366
_cell_formula_units_Z  2
loop_
  _symmetry_equiv_pos_site_id
 _symmetry_equiv_pos_as_xyz
 1  'x, y, z'
loop_
 _atom_site_type_symbol
 _atom_site_label
 _atom_site_symmetry_multiplicity
 _atom_site_fract_x
 _atom_site_fract_y
 _atom_site_fract_z
 _atom_site_fract_occupancy
 La  La1  1  0.25411  0.24902  0.26916  1
 La  La2  1  0.59581  0.58103  0.26090  1
 La  La3  1  0.75098  0.74589  0.73084  1
 La  La4  1  0.41897  0.40419  0.73910  1
 Te  Te1  1  0.24837  0.24181  0.63836  1
 Te  Te2  1  0.92187  0.91524  0.62870  1
 Te  Te3  1  0.57135  0.59379  0.63882  1
 Te  Te4  1  0.75819  0.75163  0.36164  1
 Te  Te5  1  0.40621  0.42865  0.36118  1
 Te  Te6  1  0.08476  0.07813  0.37130  1
 Te  Te7  1  0.58525  0.05047  0.00308  1
 Te  Te8  1  0.24290  0.75710  -0.00000  1
 Te  Te9  1  0.94953  0.41475  0.99692  1
 Te  Te10  1  0.74779  0.25221  -0.00000  1
 U  U1  1  0.89990  0.93598  0.26293  1
 U  U2  1  0.06402  0.10010  0.73707  1
