CIF file written using JARVIS-Tools package.
data_CdH12C8O4
_symmetry_space_group_name_H-M  'P-1'
_cell_length_a       3.74978
_cell_length_b       4.56601
_cell_length_c       12.3989
_cell_angle_alpha    91.9128
_cell_angle_beta     82.1282
_cell_angle_gamma    106.38

_symmetry_Int_Tables_number  2
_chemical_formula_structural  CdH12C8O4
_chemical_formula_sum  CdH2C8O4
_cell_volume  201.74948071469268
_cell_formula_units_Z  1
loop_
  _symmetry_equiv_pos_site_id
 _symmetry_equiv_pos_as_xyz
 1  'x, y, z'
loop_
 _atom_site_type_symbol
 _atom_site_label
 _atom_site_symmetry_multiplicity
 _atom_site_fract_x
 _atom_site_fract_y
 _atom_site_fract_z
 _atom_site_fract_occupancy
 C  C1  1  0.12875  0.17424  0.63440  1
 C  C2  1  0.91027  0.11259  0.33303  1
 C  C3  1  0.03365  0.24661  0.43985  1
 C  C4  1  0.02753  0.01740  0.52736  1
 C  C5  1  0.13040  0.95183  0.72366  1
 C  C6  1  0.23146  0.10861  0.83072  1
 C  C7  1  0.22523  0.87931  0.91822  1
 C  C8  1  0.34862  0.01321  0.02505  1
 Cd  Cd1  1  0.62942  0.56293  0.17905  1
 H  H1  1  0.31130  0.41177  0.42212  1
 H  H2  1  0.40689  0.34291  0.61971  1
 H  H3  1  0.51118  0.27350  0.81656  1
 H  H4  1  0.03507  0.24115  0.86057  1
 H  H5  1  0.22386  0.88481  0.49750  1
 H  H6  1  0.93070  0.30671  0.66335  1
 H  H7  1  0.32852  0.81941  0.69472  1
 H  H8  1  0.85228  0.78311  0.73832  1
 H  H9  1  0.41318  0.73778  0.88912  1
 H  H10  1  0.94754  0.71418  0.93593  1
 H  H11  1  0.74781  0.85252  0.54157  1
 H  H12  1  0.84564  0.38811  0.46892  1
 O  O1  1  0.00394  0.28877  0.24857  1
 O  O2  1  0.25484  0.83694  0.10949  1
 O  O3  1  0.70992  0.83793  0.33217  1
 O  O4  1  0.54909  0.28781  0.02594  1
