CIF file written using JARVIS-Tools package.
data_Li3Mn2FeO6
_symmetry_space_group_name_H-M  'C2/m'
_cell_length_a       6.42077
_cell_length_b       6.42077
_cell_length_c       5.76638
_cell_angle_alpha    75.2988
_cell_angle_beta     75.2988
_cell_angle_gamma    25.5331

_symmetry_Int_Tables_number  12
_chemical_formula_structural  Li3Mn2FeO6
_chemical_formula_sum  Li3Mn2FeO6
_cell_volume  98.93788433917128
_cell_formula_units_Z  1
loop_
  _symmetry_equiv_pos_site_id
 _symmetry_equiv_pos_as_xyz
 1  'x, y, z'
loop_
 _atom_site_type_symbol
 _atom_site_label
 _atom_site_symmetry_multiplicity
 _atom_site_fract_x
 _atom_site_fract_y
 _atom_site_fract_z
 _atom_site_fract_occupancy
 Fe  Fe1  1  -0.00000  -0.00000  0.50000  1
 Li  Li1  1  0.00000  0.00000  0.00000  1
 Li  Li2  1  0.66463  0.66463  0.66579  1
 Li  Li3  1  0.33537  0.33537  0.33421  1
 Mn  Mn1  1  0.66524  0.66524  0.16950  1
 Mn  Mn2  1  0.33476  0.33476  0.83050  1
 O  O1  1  0.16240  0.16240  0.40426  1
 O  O2  1  0.82831  0.82831  0.07088  1
 O  O3  1  0.83760  0.83760  0.59574  1
 O  O4  1  0.49455  0.49455  0.73713  1
 O  O5  1  0.50545  0.50545  0.26287  1
 O  O6  1  0.17169  0.17169  0.92912  1
