CIF file written using JARVIS-Tools package.
data_La6CoSi2S14
_symmetry_space_group_name_H-M  'P3'
_cell_length_a       10.2914
_cell_length_b       10.2914
_cell_length_c       5.7823
_cell_angle_alpha    90
_cell_angle_beta     90
_cell_angle_gamma    120

_symmetry_Int_Tables_number  143
_chemical_formula_structural  La6CoSi2S14
_chemical_formula_sum  La6CoSi2S4
_cell_volume  530.3765089888357
_cell_formula_units_Z  1
loop_
  _symmetry_equiv_pos_site_id
 _symmetry_equiv_pos_as_xyz
 1  'x, y, z'
loop_
 _atom_site_type_symbol
 _atom_site_label
 _atom_site_symmetry_multiplicity
 _atom_site_fract_x
 _atom_site_fract_y
 _atom_site_fract_z
 _atom_site_fract_occupancy
 Co  Co1  1  0.00000  0.00000  0.48279  1
 La  La1  1  0.64357  0.87433  0.24769  1
 La  La2  1  0.12567  0.76925  0.24769  1
 La  La3  1  0.23075  0.35643  0.24769  1
 La  La4  1  0.35565  0.12725  0.75037  1
 La  La5  1  0.87275  0.22840  0.75037  1
 La  La6  1  0.77160  0.64435  0.75037  1
 S  S1  1  0.33333  0.66667  0.46272  1
 S  S2  1  0.66667  0.33333  0.96870  1
 S  S3  1  0.91729  0.15610  0.25031  1
 S  S4  1  0.41211  0.88765  0.96654  1
 S  S5  1  0.11235  0.52446  0.96654  1
 S  S6  1  0.47554  0.58789  0.96654  1
 S  S7  1  0.58581  0.11205  0.47179  1
 S  S8  1  0.08559  0.84665  0.72024  1
 S  S9  1  0.76105  0.91441  0.72024  1
 S  S10  1  0.52624  0.41419  0.47179  1
 S  S11  1  0.15335  0.23895  0.72024  1
 S  S12  1  0.23881  0.08271  0.25031  1
 S  S13  1  0.88795  0.47376  0.47179  1
 S  S14  1  0.84390  0.76119  0.25031  1
 Si  Si1  1  0.66667  0.33333  0.33375  1
 Si  Si2  1  0.33333  0.66667  0.82737  1
