CIF file written using JARVIS-Tools package.
data_Li2MnP2HO8
_symmetry_space_group_name_H-M  'P2_1'
_cell_length_a       8.24259
_cell_length_b       4.74389
_cell_length_c       7.54851
_cell_angle_alpha    75.2818
_cell_angle_beta     90
_cell_angle_gamma    90

_symmetry_Int_Tables_number  4
_chemical_formula_structural  Li2MnP2HO8
_chemical_formula_sum  Li4Mn2P4H2O6
_cell_volume  285.47667085214334
_cell_formula_units_Z  2
loop_
  _symmetry_equiv_pos_site_id
 _symmetry_equiv_pos_as_xyz
 1  'x, y, z'
loop_
 _atom_site_type_symbol
 _atom_site_label
 _atom_site_symmetry_multiplicity
 _atom_site_fract_x
 _atom_site_fract_y
 _atom_site_fract_z
 _atom_site_fract_occupancy
 H  H1  1  0.99094  0.27290  0.73923  1
 H  H2  1  0.49094  0.72710  0.26077  1
 Li  Li1  1  0.63752  0.13705  0.40198  1
 Li  Li2  1  0.13752  0.86295  0.59802  1
 Li  Li3  1  0.86109  0.64814  0.90231  1
 Li  Li4  1  0.36109  0.35186  0.09769  1
 Mn  Mn1  1  -0.00110  0.24766  0.24639  1
 Mn  Mn2  1  0.49890  0.75234  0.75361  1
 O  O1  1  0.80748  0.24185  0.04380  1
 O  O2  1  0.69260  0.73833  0.54544  1
 O  O3  1  0.97325  0.86172  0.40275  1
 O  O4  1  0.16235  0.11328  0.10010  1
 O  O5  1  0.66235  0.88672  0.89990  1
 O  O6  1  0.19260  0.26167  0.45456  1
 O  O7  1  0.47325  0.13828  0.59725  1
 O  O8  1  0.55139  0.00216  0.19389  1
 O  O9  1  0.94554  0.49360  0.69304  1
 O  O10  1  0.83561  0.38140  0.39816  1
 O  O11  1  0.02645  0.63345  0.09927  1
 O  O12  1  0.44554  0.50640  0.30696  1
 O  O13  1  0.05139  -0.00216  0.80611  1
 O  O14  1  0.33561  0.61860  0.60184  1
 O  O15  1  0.30748  0.75815  0.95620  1
 O  O16  1  0.52645  0.36655  0.90073  1
 P  P1  1  0.14158  0.87734  0.98923  1
 P  P2  1  0.64158  0.12266  0.01077  1
 P  P3  1  0.35540  0.38045  0.49511  1
 P  P4  1  0.85540  0.61955  0.50489  1
