CIF file written using JARVIS-Tools package.
data_LiFeOF2
_symmetry_space_group_name_H-M  'C2/c'
_cell_length_a       6.35476
_cell_length_b       6.35475
_cell_length_c       5.0384
_cell_angle_alpha    83.4743
_cell_angle_beta     83.4742
_cell_angle_gamma    83.8704

_symmetry_Int_Tables_number  15
_chemical_formula_structural  LiFeOF2
_chemical_formula_sum  Li4Fe4O4F8
_cell_volume  199.92721394030144
_cell_formula_units_Z  4
loop_
  _symmetry_equiv_pos_site_id
 _symmetry_equiv_pos_as_xyz
 1  'x, y, z'
loop_
 _atom_site_type_symbol
 _atom_site_label
 _atom_site_symmetry_multiplicity
 _atom_site_fract_x
 _atom_site_fract_y
 _atom_site_fract_z
 _atom_site_fract_occupancy
 F  F1  1  0.47719  0.28421  0.13362  1
 F  F2  1  0.28421  0.47719  0.63362  1
 F  F3  1  0.64974  0.12662  0.60441  1
 F  F4  1  0.35026  0.87338  0.39559  1
 F  F5  1  0.71579  0.52281  0.36638  1
 F  F6  1  0.12662  0.64974  0.10441  1
 F  F7  1  0.87338  0.35026  0.89559  1
 F  F8  1  0.52281  0.71579  0.86638  1
 Fe  Fe1  1  0.92891  0.07109  0.75000  1
 Fe  Fe2  1  0.24202  0.75798  0.75000  1
 Fe  Fe3  1  0.75798  0.24202  0.25000  1
 Fe  Fe4  1  0.07109  0.92891  0.25000  1
 Li  Li1  1  0.77089  0.59780  0.69059  1
 Li  Li2  1  0.22911  0.40220  0.30941  1
 Li  Li3  1  0.40220  0.22911  0.80941  1
 Li  Li4  1  0.59780  0.77089  0.19059  1
 O  O1  1  0.80970  0.97946  0.10964  1
 O  O2  1  0.02054  0.19030  0.39036  1
 O  O3  1  0.97946  0.80970  0.60964  1
 O  O4  1  0.19030  0.02054  0.89036  1
