CIF file written using JARVIS-Tools package.
data_NaLiFe2Si4O12
_symmetry_space_group_name_H-M  'C2'
_cell_length_a       6.46225
_cell_length_b       6.46224
_cell_length_c       5.29699
_cell_angle_alpha    76.4006
_cell_angle_beta     76.4006
_cell_angle_gamma    83.9975

_symmetry_Int_Tables_number  5
_chemical_formula_structural  NaLiFe2Si4O12
_chemical_formula_sum  NaLiFe2Si4O2
_cell_volume  208.69104031138068
_cell_formula_units_Z  1
loop_
  _symmetry_equiv_pos_site_id
 _symmetry_equiv_pos_as_xyz
 1  'x, y, z'
loop_
 _atom_site_type_symbol
 _atom_site_label
 _atom_site_symmetry_multiplicity
 _atom_site_fract_x
 _atom_site_fract_y
 _atom_site_fract_z
 _atom_site_fract_occupancy
 Fe  Fe1  1  0.90757  0.09243  0.50000  1
 Fe  Fe2  1  0.09786  0.90214  0.00000  1
 Li  Li1  1  0.74426  0.25574  0.00000  1
 Na  Na1  1  0.29563  0.70437  0.50000  1
 O  O1  1  0.96112  0.80743  0.40310  1
 O  O2  1  0.19257  0.03888  0.59690  1
 O  O3  1  0.89013  0.36949  0.57928  1
 O  O4  1  0.65411  0.64090  0.27032  1
 O  O5  1  0.80015  0.97845  0.87888  1
 O  O6  1  0.62793  0.65185  0.77452  1
 O  O7  1  0.35910  0.34589  0.72968  1
 O  O8  1  0.34815  0.37207  0.22548  1
 O  O9  1  0.37901  0.90741  0.05703  1
 O  O10  1  0.09259  0.62099  0.94297  1
 O  O11  1  0.63051  0.10987  0.42072  1
 O  O12  1  0.02155  0.19985  0.12112  1
 Si  Si1  1  0.19969  0.38361  0.01050  1
 Si  Si2  1  0.38794  0.20626  0.50007  1
 Si  Si3  1  0.61639  0.80031  0.98950  1
 Si  Si4  1  0.79374  0.61206  0.49993  1
