CIF file written using JARVIS-Tools package.
data_CdH14C9O4
_symmetry_space_group_name_H-M  'P1'
_cell_length_a       4.09043
_cell_length_b       4.74576
_cell_length_c       12.7678
_cell_angle_alpha    91.8191
_cell_angle_beta     84.7796
_cell_angle_gamma    70.6462

_symmetry_Int_Tables_number  1
_chemical_formula_structural  CdH14C9O4
_chemical_formula_sum  CdH4C9O4
_cell_volume  232.36888001606593
_cell_formula_units_Z  1
loop_
  _symmetry_equiv_pos_site_id
 _symmetry_equiv_pos_as_xyz
 1  'x, y, z'
loop_
 _atom_site_type_symbol
 _atom_site_label
 _atom_site_symmetry_multiplicity
 _atom_site_fract_x
 _atom_site_fract_y
 _atom_site_fract_z
 _atom_site_fract_occupancy
 C  C1  1  0.90380  0.95008  0.67734  1
 C  C2  1  0.89102  0.76432  0.31280  1
 C  C3  1  0.58976  0.86670  0.39915  1
 C  C4  1  0.86366  0.79596  0.57453  1
 C  C5  1  0.67513  0.01762  0.49716  1
 C  C6  1  0.07828  0.73128  0.75744  1
 C  C7  1  0.11594  0.88869  0.85990  1
 C  C8  1  0.30153  0.66820  0.93775  1
 C  C9  1  0.39464  0.81036  0.03345  1
 Cd  Cd1  1  0.49338  0.26903  0.17708  1
 H  H1  1  0.42646  0.16705  0.53817  1
 H  H2  1  0.51893  0.67181  0.42180  1
 H  H3  1  0.36653  0.02697  0.36774  1
 H  H4  1  0.33830  0.58648  0.72181  1
 H  H5  1  0.14542  0.53125  0.96615  1
 H  H6  1  0.54724  0.50646  0.89924  1
 H  H7  1  0.82565  0.16316  0.47249  1
 H  H8  1  0.71555  0.64379  0.59282  1
 H  H9  1  0.64413  0.09509  0.71316  1
 H  H10  1  0.05459  0.10071  0.66008  1
 H  H11  1  0.85717  0.02910  0.89739  1
 H  H12  1  0.26049  0.04300  0.84163  1
 H  H13  1  0.12112  0.65277  0.53709  1
 H  H14  1  0.92803  0.58024  0.77482  1
 O  O1  1  0.93270  0.94511  0.24497  1
 O  O2  1  0.28016  0.09607  0.04597  1
 O  O3  1  0.10235  0.49646  0.31341  1
 O  O4  1  0.59164  0.64836  0.09634  1
