CIF file written using JARVIS-Tools package.
data_CdH16C10O4
_symmetry_space_group_name_H-M  'P1'
_cell_length_a       3.8619
_cell_length_b       4.3951
_cell_length_c       15.0405
_cell_angle_alpha    97.4099
_cell_angle_beta     94.3115
_cell_angle_gamma    96.4889

_symmetry_Int_Tables_number  1
_chemical_formula_structural  CdH16C10O4
_chemical_formula_sum  CdH6C0O4
_cell_volume  250.48863493927075
_cell_formula_units_Z  1
loop_
  _symmetry_equiv_pos_site_id
 _symmetry_equiv_pos_as_xyz
 1  'x, y, z'
loop_
 _atom_site_type_symbol
 _atom_site_label
 _atom_site_symmetry_multiplicity
 _atom_site_fract_x
 _atom_site_fract_y
 _atom_site_fract_z
 _atom_site_fract_occupancy
 C  C1  1  0.42782  0.24793  0.62319  1
 C  C2  1  0.90215  0.98116  0.29509  1
 C  C3  1  0.05604  0.87694  0.37969  1
 C  C4  1  0.29274  -0.00019  0.54341  1
 C  C5  1  0.16064  0.13152  0.45959  1
 C  C6  1  0.55345  0.11478  0.70736  1
 C  C7  1  0.70478  0.36293  0.78577  1
 C  C8  1  0.82587  0.23120  0.87060  1
 C  C9  1  -0.00394  0.48537  0.94534  1
 C  C10  1  0.13585  0.36749  0.02926  1
 Cd  Cd1  1  0.48004  0.03891  0.14772  1
 H  H1  1  0.08114  0.83902  0.56347  1
 H  H2  1  0.27641  0.75041  0.36274  1
 H  H3  1  0.85211  0.70252  0.39684  1
 H  H4  1  0.75260  0.96113  0.69027  1
 H  H5  1  0.50325  0.85832  0.52652  1
 H  H6  1  0.21263  0.62869  0.92146  1
 H  H7  1  0.80824  0.64416  0.96609  1
 H  H8  1  0.92722  0.50722  0.76412  1
 H  H9  1  0.33418  0.96617  0.72886  1
 H  H10  1  0.64427  0.40381  0.60331  1
 H  H11  1  0.50918  0.52101  0.80194  1
 H  H12  1  0.36640  0.29962  0.44094  1
 H  H13  1  0.93629  0.25742  0.47407  1
 H  H14  1  0.01162  0.06472  0.85362  1
 H  H15  1  0.60261  0.09855  0.89551  1
 H  H16  1  0.22111  0.39429  0.63939  1
 O  O1  1  0.68872  0.18158  0.29938  1
 O  O2  1  0.40344  0.51552  0.07819  1
 O  O3  1  0.96853  0.84489  0.21787  1
 O  O4  1  -0.00204  0.10858  0.04882  1
