CIF file written using JARVIS-Tools package.
data_CdH18C11O4
_symmetry_space_group_name_H-M  'P1'
_cell_length_a       4.00991
_cell_length_b       4.46172
_cell_length_c       15.6624
_cell_angle_alpha    82.6692
_cell_angle_beta     82.7643
_cell_angle_gamma    73.6694

_symmetry_Int_Tables_number  1
_chemical_formula_structural  CdH18C11O4
_chemical_formula_sum  CdH8CO4
_cell_volume  265.51609234948177
_cell_formula_units_Z  1
loop_
  _symmetry_equiv_pos_site_id
 _symmetry_equiv_pos_as_xyz
 1  'x, y, z'
loop_
 _atom_site_type_symbol
 _atom_site_label
 _atom_site_symmetry_multiplicity
 _atom_site_fract_x
 _atom_site_fract_y
 _atom_site_fract_z
 _atom_site_fract_occupancy
 C  C1  1  0.83063  0.40180  0.65264  1
 C  C2  1  0.60511  0.48112  0.26456  1
 C  C3  1  0.41097  0.59605  0.34880  1
 C  C4  1  0.15566  0.50006  0.50229  1
 C  C5  1  0.07540  0.26142  0.57562  1
 C  C6  1  0.34335  0.34902  0.42062  1
 C  C7  1  0.99156  0.54378  0.71542  1
 C  C8  1  0.74599  0.68270  0.79256  1
 C  C9  1  0.68018  0.44001  0.86637  1
 C  C10  1  0.48205  0.58884  0.94740  1
 C  C11  1  0.48408  0.35669  0.02711  1
 Cd  Cd1  1  0.04247  0.94055  0.14494  1
 H  H1  1  0.59185  0.17872  0.43570  1
 H  H2  1  0.57015  0.73220  0.37056  1
 H  H3  1  0.60914  0.58333  0.62700  1
 H  H4  1  0.16623  0.77143  0.33398  1
 H  H5  1  0.95082  0.10902  0.54844  1
 H  H6  1  0.86652  0.83981  0.81896  1
 H  H7  1  0.49569  0.83161  0.77066  1
 H  H8  1  0.60850  0.76036  0.96446  1
 H  H9  1  0.21106  0.71937  0.93751  1
 H  H10  1  0.53604  0.29022  0.84553  1
 H  H11  1  0.31314  0.63746  0.52362  1
 H  H12  1  0.32243  0.10711  0.59796  1
 H  H13  1  0.72086  0.21800  0.68850  1
 H  H14  1  0.10017  0.72831  0.67957  1
 H  H15  1  0.21356  0.36300  0.74112  1
 H  H16  1  0.93312  0.28372  0.88378  1
 H  H17  1  0.18363  0.21668  0.39784  1
 H  H18  1  0.90780  0.67036  0.48584  1
 O  O1  1  0.57500  0.68343  0.19691  1
 O  O2  1  0.80037  0.20344  0.26446  1
 O  O3  1  0.23618  0.41681  0.08801  1
 O  O4  1  0.73687  0.10747  0.03022  1
