CIF file written using JARVIS-Tools package.
data_LiFeSiO4
_symmetry_space_group_name_H-M  'Pnma'
_cell_length_a       4.78254
_cell_length_b       5.86329
_cell_length_c       10.1041
_cell_angle_alpha    90
_cell_angle_beta     90
_cell_angle_gamma    90

_symmetry_Int_Tables_number  62
_chemical_formula_structural  LiFeSiO4
_chemical_formula_sum  Li4Fe4Si4O6
_cell_volume  283.33288524097276
_cell_formula_units_Z  4
loop_
  _symmetry_equiv_pos_site_id
 _symmetry_equiv_pos_as_xyz
 1  'x, y, z'
loop_
 _atom_site_type_symbol
 _atom_site_label
 _atom_site_symmetry_multiplicity
 _atom_site_fract_x
 _atom_site_fract_y
 _atom_site_fract_z
 _atom_site_fract_occupancy
 Fe  Fe1  1  0.98990  0.25000  0.22606  1
 Fe  Fe2  1  0.51010  0.25000  0.72606  1
 Fe  Fe3  1  0.48990  0.75000  0.27394  1
 Fe  Fe4  1  0.01010  0.75000  0.77394  1
 Li  Li1  1  0.00000  0.00000  0.50000  1
 Li  Li2  1  0.00000  0.50000  0.50000  1
 Li  Li3  1  0.50000  0.50000  0.00000  1
 Li  Li4  1  0.50000  0.00000  0.00000  1
 O  O1  1  0.77887  0.25000  0.39980  1
 O  O2  1  0.78385  0.53359  0.17007  1
 O  O3  1  0.78385  0.96641  0.17007  1
 O  O4  1  0.31002  0.25000  0.55749  1
 O  O5  1  0.71615  0.96641  0.67007  1
 O  O6  1  0.22113  0.75000  0.60020  1
 O  O7  1  0.18998  0.25000  0.05749  1
 O  O8  1  0.71615  0.53359  0.67007  1
 O  O9  1  0.81002  0.75000  0.94251  1
 O  O10  1  0.21615  0.46641  0.82993  1
 O  O11  1  0.28385  0.46641  0.32993  1
 O  O12  1  0.28385  0.03359  0.32993  1
 O  O13  1  0.72113  0.25000  0.89980  1
 O  O14  1  0.21615  0.03359  0.82993  1
 O  O15  1  0.27887  0.75000  0.10020  1
 O  O16  1  0.68998  0.75000  0.44251  1
 Si  Si1  1  0.94050  0.75000  0.09305  1
 Si  Si2  1  0.55950  0.75000  0.59305  1
 Si  Si3  1  0.44050  0.25000  0.40695  1
 Si  Si4  1  0.05950  0.25000  0.90695  1
