CIF file written using JARVIS-Tools package.
data_HfAlCu
_symmetry_space_group_name_H-M  'Amm2'
_cell_length_a       5.14093
_cell_length_b       5.14093
_cell_length_c       8.26887
_cell_angle_alpha    90
_cell_angle_beta     90
_cell_angle_gamma    118.846

_symmetry_Int_Tables_number  38
_chemical_formula_structural  HfAlCu
_chemical_formula_sum  Hf4Al4Cu4
_cell_volume  191.4231016295194
_cell_formula_units_Z  4
loop_
  _symmetry_equiv_pos_site_id
 _symmetry_equiv_pos_as_xyz
 1  'x, y, z'
loop_
 _atom_site_type_symbol
 _atom_site_label
 _atom_site_symmetry_multiplicity
 _atom_site_fract_x
 _atom_site_fract_y
 _atom_site_fract_z
 _atom_site_fract_occupancy
 Al  Al1  1  0.00477  0.99523  0.23810  1
 Al  Al2  1  0.00477  0.99523  0.76190  1
 Al  Al3  1  0.65027  0.83422  0.50000  1
 Al  Al4  1  0.16578  0.34973  0.50000  1
 Cu  Cu1  1  0.16442  0.83558  0.50000  1
 Cu  Cu2  1  0.34841  0.17257  0.00000  1
 Cu  Cu3  1  0.82743  0.65159  0.00000  1
 Cu  Cu4  1  0.82957  0.17043  0.00000  1
 Hf  Hf1  1  0.66684  0.33316  0.30370  1
 Hf  Hf2  1  0.33537  0.66463  0.18145  1
 Hf  Hf3  1  0.33537  0.66463  0.81855  1
 Hf  Hf4  1  0.66684  0.33316  0.69630  1
