CIF file written using JARVIS-Tools package.
data_HfGa3Ni12
_symmetry_space_group_name_H-M  'P4/mmm'
_cell_length_a       3.62642
_cell_length_b       3.62642
_cell_length_c       14.247
_cell_angle_alpha    90
_cell_angle_beta     90
_cell_angle_gamma    90

_symmetry_Int_Tables_number  123
_chemical_formula_structural  HfGa3Ni12
_chemical_formula_sum  HfGa3Ni2
_cell_volume  187.3606903723954
_cell_formula_units_Z  1
loop_
  _symmetry_equiv_pos_site_id
 _symmetry_equiv_pos_as_xyz
 1  'x, y, z'
loop_
 _atom_site_type_symbol
 _atom_site_label
 _atom_site_symmetry_multiplicity
 _atom_site_fract_x
 _atom_site_fract_y
 _atom_site_fract_z
 _atom_site_fract_occupancy
 Ga  Ga1  1  0.00000  0.00000  0.25633  1
 Ga  Ga2  1  0.00000  0.00000  0.50000  1
 Ga  Ga3  1  0.00000  0.00000  0.74367  1
 Hf  Hf1  1  0.00000  0.00000  0.00000  1
 Ni  Ni1  1  0.50000  0.50000  0.00000  1
 Ni  Ni2  1  0.50000  0.50000  0.25502  1
 Ni  Ni3  1  0.50000  0.50000  0.50000  1
 Ni  Ni4  1  0.50000  0.50000  0.74498  1
 Ni  Ni5  1  0.50000  0.00000  0.13309  1
 Ni  Ni6  1  0.50000  0.00000  0.37737  1
 Ni  Ni7  1  0.50000  0.00000  0.62263  1
 Ni  Ni8  1  0.50000  0.00000  0.86691  1
 Ni  Ni9  1  0.00000  0.50000  0.13309  1
 Ni  Ni10  1  0.00000  0.50000  0.37737  1
 Ni  Ni11  1  0.00000  0.50000  0.62263  1
 Ni  Ni12  1  0.00000  0.50000  0.86691  1
