CIF file written using JARVIS-Tools package.
data_ZnSi2SnO6
_symmetry_space_group_name_H-M  'C2/c'
_cell_length_a       6.81941
_cell_length_b       6.8194
_cell_length_c       5.38814
_cell_angle_alpha    78.4343
_cell_angle_beta     78.4342
_cell_angle_gamma    84.6469

_symmetry_Int_Tables_number  15
_chemical_formula_structural  ZnSi2SnO6
_chemical_formula_sum  Zn2Si4Sn2O2
_cell_volume  240.13114596189584
_cell_formula_units_Z  2
loop_
  _symmetry_equiv_pos_site_id
 _symmetry_equiv_pos_as_xyz
 1  'x, y, z'
loop_
 _atom_site_type_symbol
 _atom_site_label
 _atom_site_symmetry_multiplicity
 _atom_site_fract_x
 _atom_site_fract_y
 _atom_site_fract_z
 _atom_site_fract_occupancy
 O  O1  1  0.60986  0.10106  0.19210  1
 O  O2  1  0.81263  0.85011  0.51865  1
 O  O3  1  0.10106  0.60986  0.69210  1
 O  O4  1  0.18737  0.14989  0.48135  1
 O  O5  1  0.85011  0.81263  0.01865  1
 O  O6  1  0.14989  0.18737  0.98135  1
 O  O7  1  0.47792  0.30076  0.64146  1
 O  O8  1  0.30076  0.47792  0.14146  1
 O  O9  1  0.52208  0.69924  0.35854  1
 O  O10  1  0.39014  0.89894  0.80790  1
 O  O11  1  0.89894  0.39014  0.30790  1
 O  O12  1  0.69924  0.52208  0.85854  1
 Si  Si1  1  0.12868  0.30910  0.22369  1
 Si  Si2  1  0.69090  0.87132  0.27631  1
 Si  Si3  1  0.30910  0.12868  0.72369  1
 Si  Si4  1  0.87132  0.69090  0.77631  1
 Sn  Sn1  1  0.21364  0.78636  0.25000  1
 Sn  Sn2  1  0.78636  0.21364  0.75000  1
 Zn  Zn1  1  0.39760  0.60240  0.75000  1
 Zn  Zn2  1  0.60240  0.39760  0.25000  1
