CIF file written using JARVIS-Tools package.
data_Dy4CdSe7
_symmetry_space_group_name_H-M  'Cm'
_cell_length_a       6.9074
_cell_length_b       6.90741
_cell_length_c       12.1592
_cell_angle_alpha    75.0438
_cell_angle_beta     75.0438
_cell_angle_gamma    33.5255

_symmetry_Int_Tables_number  8
_chemical_formula_structural  Dy4CdSe7
_chemical_formula_sum  Dy4CdSe7
_cell_volume  308.5580101090724
_cell_formula_units_Z  1
loop_
  _symmetry_equiv_pos_site_id
 _symmetry_equiv_pos_as_xyz
 1  'x, y, z'
loop_
 _atom_site_type_symbol
 _atom_site_label
 _atom_site_symmetry_multiplicity
 _atom_site_fract_x
 _atom_site_fract_y
 _atom_site_fract_z
 _atom_site_fract_occupancy
 Cd  Cd1  1  0.88097  0.88097  0.42064  1
 Dy  Dy1  1  0.70131  0.70131  0.18964  1
 Dy  Dy2  1  0.31590  0.31590  0.78942  1
 Dy  Dy3  1  0.00711  0.00711  0.00346  1
 Dy  Dy4  1  0.11087  0.11087  0.57105  1
 Se  Se1  1  0.73569  0.73569  0.64534  1
 Se  Se2  1  0.25418  0.25418  0.34836  1
 Se  Se3  1  0.34541  0.34541  0.04537  1
 Se  Se4  1  0.66718  0.66718  0.94485  1
 Se  Se5  1  0.03944  0.03944  0.22120  1
 Se  Se6  1  0.96721  0.96721  0.78874  1
 Se  Se7  1  0.47472  0.47472  0.53192  1
