CIF file written using JARVIS-Tools package.
data_VF5
_symmetry_space_group_name_H-M  'Pnma'
_cell_length_a       4.64141
_cell_length_b       8.17772
_cell_length_c       9.33292
_cell_angle_alpha    90
_cell_angle_beta     90
_cell_angle_gamma    90

_symmetry_Int_Tables_number  62
_chemical_formula_structural  VF5
_chemical_formula_sum  V4F20
_cell_volume  354.2413549089353
_cell_formula_units_Z  4
loop_
  _symmetry_equiv_pos_site_id
 _symmetry_equiv_pos_as_xyz
 1  'x, y, z'
loop_
 _atom_site_type_symbol
 _atom_site_label
 _atom_site_symmetry_multiplicity
 _atom_site_fract_x
 _atom_site_fract_y
 _atom_site_fract_z
 _atom_site_fract_occupancy
 F  F1  1  0.46316  0.57163  0.12239  1
 F  F2  1  0.03684  0.07163  0.12239  1
 F  F3  1  0.03684  0.07163  0.37761  1
 F  F4  1  0.51841  0.09489  0.75000  1
 F  F5  1  0.49256  0.21085  0.12049  1
 F  F6  1  0.49256  0.21085  0.37951  1
 F  F7  1  0.99256  0.28915  0.62049  1
 F  F8  1  0.99256  0.28915  0.87951  1
 F  F9  1  0.96316  0.92837  0.62239  1
 F  F10  1  0.01841  0.40511  0.25000  1
 F  F11  1  0.53684  0.42837  0.87761  1
 F  F12  1  0.96316  0.92837  0.87761  1
 F  F13  1  0.46316  0.57163  0.37761  1
 F  F14  1  0.98159  0.59489  0.75000  1
 F  F15  1  0.00744  0.71085  0.12049  1
 F  F16  1  0.00744  0.71085  0.37951  1
 F  F17  1  0.50744  0.78915  0.62049  1
 F  F18  1  0.50744  0.78915  0.87951  1
 F  F19  1  0.48159  0.90511  0.25000  1
 F  F20  1  0.53684  0.42837  0.62239  1
 V  V1  1  0.68833  0.90690  0.75000  1
 V  V2  1  0.18833  0.59310  0.25000  1
 V  V3  1  0.81167  0.40690  0.75000  1
 V  V4  1  0.31167  0.09310  0.25000  1
