CIF file written using JARVIS-Tools package.
data_HfMgO3
_symmetry_space_group_name_H-M  'Cm'
_cell_length_a       3.91467
_cell_length_b       3.91467
_cell_length_c       5.00536
_cell_angle_alpha    100.323
_cell_angle_beta     100.323
_cell_angle_gamma    91.1287

_symmetry_Int_Tables_number  8
_chemical_formula_structural  HfMgO3
_chemical_formula_sum  HfMgO3
_cell_volume  74.135965901343
_cell_formula_units_Z  1
loop_
  _symmetry_equiv_pos_site_id
 _symmetry_equiv_pos_as_xyz
 1  'x, y, z'
loop_
 _atom_site_type_symbol
 _atom_site_label
 _atom_site_symmetry_multiplicity
 _atom_site_fract_x
 _atom_site_fract_y
 _atom_site_fract_z
 _atom_site_fract_occupancy
 Hf  Hf1  1  0.03022  0.03022  0.01560  1
 Mg  Mg1  1  0.44539  0.44539  0.71298  1
 O  O1  1  0.49486  -0.02172  0.88089  1
 O  O2  1  -0.02172  0.49486  0.88089  1
 O  O3  1  0.16462  0.16462  0.39630  1
