CIF file written using JARVIS-Tools package.
data_HfMgO2
_symmetry_space_group_name_H-M  'R-3m'
_cell_length_a       2.95455
_cell_length_b       2.95455
_cell_length_c       5.82714
_cell_angle_alpha    104.658
_cell_angle_beta     104.658
_cell_angle_gamma    60.0102

_symmetry_Int_Tables_number  166
_chemical_formula_structural  HfMgO2
_chemical_formula_sum  HfMgO2
_cell_volume  42.13382873894923
_cell_formula_units_Z  1
loop_
  _symmetry_equiv_pos_site_id
 _symmetry_equiv_pos_as_xyz
 1  'x, y, z'
loop_
 _atom_site_type_symbol
 _atom_site_label
 _atom_site_symmetry_multiplicity
 _atom_site_fract_x
 _atom_site_fract_y
 _atom_site_fract_z
 _atom_site_fract_occupancy
 Hf  Hf1  1  0.00000  0.00000  0.00000  1
 Mg  Mg1  1  0.50000  0.50000  0.50000  1
 O  O1  1  0.23723  0.23723  0.71209  1
 O  O2  1  0.76277  0.76277  0.28791  1
