CIF file written using JARVIS-Tools package.
data_AlGaO2
_symmetry_space_group_name_H-M  'R3m'
_cell_length_a       6.8083
_cell_length_b       6.8083
_cell_length_c       6.8083
_cell_angle_alpha    25.039
_cell_angle_beta     25.039
_cell_angle_gamma    25.039

_symmetry_Int_Tables_number  160
_chemical_formula_structural  AlGaO2
_chemical_formula_sum  AlGaO2
_cell_volume  49.73509070649749
_cell_formula_units_Z  1
loop_
  _symmetry_equiv_pos_site_id
 _symmetry_equiv_pos_as_xyz
 1  'x, y, z'
loop_
 _atom_site_type_symbol
 _atom_site_label
 _atom_site_symmetry_multiplicity
 _atom_site_fract_x
 _atom_site_fract_y
 _atom_site_fract_z
 _atom_site_fract_occupancy
 Al  Al1  1  0.17940  0.17940  0.17940  1
 Ga  Ga1  1  0.99794  0.99794  0.99794  1
 O  O1  1  0.27066  0.27066  0.27066  1
 O  O2  1  0.71101  0.71101  0.71101  1
