CIF file written using JARVIS-Tools package.
data_AlGaO4
_symmetry_space_group_name_H-M  'Cmmm'
_cell_length_a       4.51098
_cell_length_b       4.51098
_cell_length_c       2.95512
_cell_angle_alpha    90
_cell_angle_beta     90
_cell_angle_gamma    89.215

_symmetry_Int_Tables_number  65
_chemical_formula_structural  AlGaO4
_chemical_formula_sum  AlGaO4
_cell_volume  60.127887105444245
_cell_formula_units_Z  1
loop_
  _symmetry_equiv_pos_site_id
 _symmetry_equiv_pos_as_xyz
 1  'x, y, z'
loop_
 _atom_site_type_symbol
 _atom_site_label
 _atom_site_symmetry_multiplicity
 _atom_site_fract_x
 _atom_site_fract_y
 _atom_site_fract_z
 _atom_site_fract_occupancy
 Al  Al1  1  0.00000  0.00000  0.00071  1
 Ga  Ga1  1  0.50000  0.50000  0.50065  1
 O  O1  1  0.29268  0.70732  0.00065  1
 O  O2  1  0.80895  0.80895  0.50072  1
 O  O3  1  0.70732  0.29268  0.00065  1
 O  O4  1  0.19106  0.19106  0.50072  1
