CIF file written using JARVIS-Tools package.
data_Cr8Fe3CuS16
_symmetry_space_group_name_H-M  'P-4m2'
_cell_length_a       6.88644
_cell_length_b       9.72599
_cell_length_c       6.88644
_cell_angle_alpha    90
_cell_angle_beta     90
_cell_angle_gamma    90

_symmetry_Int_Tables_number  115
_chemical_formula_structural  Cr8Fe3CuS16
_chemical_formula_sum  Cr8Fe3CuS6
_cell_volume  461.2363570806567
_cell_formula_units_Z  1
loop_
  _symmetry_equiv_pos_site_id
 _symmetry_equiv_pos_as_xyz
 1  'x, y, z'
loop_
 _atom_site_type_symbol
 _atom_site_label
 _atom_site_symmetry_multiplicity
 _atom_site_fract_x
 _atom_site_fract_y
 _atom_site_fract_z
 _atom_site_fract_occupancy
 Cr  Cr1  1  0.25000  0.74847  0.25007  1
 Cr  Cr2  1  0.75000  0.25146  0.74951  1
 Cr  Cr3  1  0.75000  0.25146  0.25049  1
 Cr  Cr4  1  0.25000  0.74847  0.74993  1
 Cr  Cr5  1  0.50007  0.50153  0.00000  1
 Cr  Cr6  1  0.99951  -0.00146  0.50000  1
 Cr  Cr7  1  -0.00007  0.50153  0.00000  1
 Cr  Cr8  1  0.50049  -0.00146  0.50000  1
 Cu  Cu1  1  0.25000  0.12500  0.00000  1
 Fe  Fe1  1  0.75000  0.62500  0.50000  1
 Fe  Fe2  1  0.75000  0.87584  0.00000  1
 Fe  Fe3  1  0.25000  0.37416  0.50000  1
 S  S1  1  0.25000  0.50167  0.75749  1
 S  S2  1  0.51667  0.26005  0.00000  1
 S  S3  1  0.25000  0.50167  0.24251  1
 S  S4  1  0.75000  0.00457  0.74412  1
 S  S5  1  0.00749  0.74833  0.00000  1
 S  S6  1  0.50588  0.24543  0.50000  1
 S  S7  1  0.75000  0.00457  0.25588  1
 S  S8  1  0.98333  0.26005  0.00000  1
 S  S9  1  0.75000  0.49934  0.24278  1
 S  S10  1  0.25000  0.98995  0.73333  1
 S  S11  1  0.75000  0.49934  0.75722  1
 S  S12  1  0.25000  0.98995  0.26667  1
 S  S13  1  0.49251  0.74833  0.00000  1
 S  S14  1  0.49278  0.75066  0.50000  1
 S  S15  1  0.99412  0.24543  0.50000  1
 S  S16  1  0.00722  0.75066  0.50000  1
