CIF file written using JARVIS-Tools package.
data_SnH4C2F2
_symmetry_space_group_name_H-M  'P1'
_cell_length_a       4.35446
_cell_length_b       6.2125
_cell_length_c       7.11141
_cell_angle_alpha    100.564
_cell_angle_beta     101.957
_cell_angle_gamma    97.7341

_symmetry_Int_Tables_number  1
_chemical_formula_structural  SnH4C2F2
_chemical_formula_sum  Sn2H8C4F4
_cell_volume  182.0114883068299
_cell_formula_units_Z  2
loop_
  _symmetry_equiv_pos_site_id
 _symmetry_equiv_pos_as_xyz
 1  'x, y, z'
loop_
 _atom_site_type_symbol
 _atom_site_label
 _atom_site_symmetry_multiplicity
 _atom_site_fract_x
 _atom_site_fract_y
 _atom_site_fract_z
 _atom_site_fract_occupancy
 C  C1  1  0.93914  0.85104  0.19491  1
 C  C2  1  0.04564  0.91870  0.41561  1
 C  C3  1  0.84938  0.34227  0.83632  1
 C  C4  1  0.12340  0.44343  0.76488  1
 F  F1  1  0.39811  0.07609  0.99022  1
 F  F2  1  0.48599  0.55575  0.45318  1
 F  F3  1  0.78337  0.84133  0.77366  1
 F  F4  1  0.89558  0.36216  0.28952  1
 H  H1  1  0.29811  -0.00356  0.46851  1
 H  H2  1  0.09599  0.75090  0.13094  1
 H  H3  1  0.89871  0.02667  0.48070  1
 H  H4  1  0.73919  0.46638  0.91441  1
 H  H5  1  0.24336  0.32154  0.69265  1
 H  H6  1  0.30099  0.56667  0.87968  1
 H  H7  1  0.66459  0.23238  0.71544  1
 H  H8  1  0.69332  0.75767  0.14574  1
 Sn  Sn1  1  0.91413  0.10908  0.02761  1
 Sn  Sn2  1  0.97883  0.62874  0.54151  1
