CIF file written using JARVIS-Tools package.
data_NdAlAu
_symmetry_space_group_name_H-M  'Pnma'
_cell_length_a       4.57701
_cell_length_b       7.50926
_cell_length_c       7.80883
_cell_angle_alpha    90
_cell_angle_beta     90
_cell_angle_gamma    90

_symmetry_Int_Tables_number  62
_chemical_formula_structural  NdAlAu
_chemical_formula_sum  Nd4Al4Au4
_cell_volume  268.38933867626747
_cell_formula_units_Z  4
loop_
  _symmetry_equiv_pos_site_id
 _symmetry_equiv_pos_as_xyz
 1  'x, y, z'
loop_
 _atom_site_type_symbol
 _atom_site_label
 _atom_site_symmetry_multiplicity
 _atom_site_fract_x
 _atom_site_fract_y
 _atom_site_fract_z
 _atom_site_fract_occupancy
 Al  Al1  1  0.25000  0.17514  0.91824  1
 Al  Al2  1  0.25000  0.67514  0.58176  1
 Al  Al3  1  0.75000  0.82486  0.08176  1
 Al  Al4  1  0.75000  0.32486  0.41824  1
 Au  Au1  1  0.25000  0.29841  0.59173  1
 Au  Au2  1  0.25000  0.79841  0.90827  1
 Au  Au3  1  0.75000  0.70159  0.40827  1
 Au  Au4  1  0.75000  0.20159  0.09173  1
 Nd  Nd1  1  0.25000  0.00991  0.30583  1
 Nd  Nd2  1  0.25000  0.50991  0.19417  1
 Nd  Nd3  1  0.75000  0.99009  0.69417  1
 Nd  Nd4  1  0.75000  0.49009  0.80583  1
