CIF file written using JARVIS-Tools package.
data_NaFeBO3
_symmetry_space_group_name_H-M  'C2/c'
_cell_length_a       5.03563
_cell_length_b       8.95051
_cell_length_c       5.54652
_cell_angle_alpha    90.0043
_cell_angle_beta     78.8309
_cell_angle_gamma    89.9992

_symmetry_Int_Tables_number  15
_chemical_formula_structural  NaFeBO3
_chemical_formula_sum  Na4Fe4B4O2
_cell_volume  245.25476963992395
_cell_formula_units_Z  4
loop_
  _symmetry_equiv_pos_site_id
 _symmetry_equiv_pos_as_xyz
 1  'x, y, z'
loop_
 _atom_site_type_symbol
 _atom_site_label
 _atom_site_symmetry_multiplicity
 _atom_site_fract_x
 _atom_site_fract_y
 _atom_site_fract_z
 _atom_site_fract_occupancy
 B  B1  1  0.00001  0.66833  0.75003  1
 B  B2  1  0.49999  0.16834  0.74997  1
 B  B3  1  0.50000  0.83167  0.25003  1
 B  B4  1  0.00000  0.33166  0.24996  1
 Fe  Fe1  1  0.50001  0.50000  0.49997  1
 Fe  Fe2  1  0.50000  0.50000  0.00002  1
 Fe  Fe3  1  -0.00001  0.00000  0.50003  1
 Fe  Fe4  1  0.00000  0.00000  0.99998  1
 Na  Na1  1  -0.00001  0.33524  0.74996  1
 Na  Na2  1  0.49999  0.16476  0.24998  1
 Na  Na3  1  0.50000  0.83522  0.75002  1
 Na  Na4  1  0.00001  0.66478  0.25004  1
 O  O1  1  0.28523  0.90768  0.18527  1
 O  O2  1  0.21476  0.40769  0.31470  1
 O  O3  1  0.50001  0.32328  0.74992  1
 O  O4  1  -0.00003  0.82327  0.75002  1
 O  O5  1  0.00003  0.17672  0.24998  1
 O  O6  1  0.50000  0.67673  0.25007  1
 O  O7  1  0.28520  0.09232  0.68526  1
 O  O8  1  0.78524  0.59229  0.68530  1
 O  O9  1  0.71475  0.09233  0.81474  1
 O  O10  1  0.21481  0.59234  0.81477  1
 O  O11  1  0.78521  0.40766  0.18522  1
 O  O12  1  0.71479  0.90769  0.31474  1
