CIF file written using JARVIS-Tools package.
data_SnH4C2F2
_symmetry_space_group_name_H-M  'P-1'
_cell_length_a       4.29292
_cell_length_b       4.48129
_cell_length_c       9.82786
_cell_angle_alpha    80.4224
_cell_angle_beta     90.1307
_cell_angle_gamma    69.651

_symmetry_Int_Tables_number  2
_chemical_formula_structural  SnH4C2F2
_chemical_formula_sum  Sn2H8C4F4
_cell_volume  174.42626107734705
_cell_formula_units_Z  2
loop_
  _symmetry_equiv_pos_site_id
 _symmetry_equiv_pos_as_xyz
 1  'x, y, z'
loop_
 _atom_site_type_symbol
 _atom_site_label
 _atom_site_symmetry_multiplicity
 _atom_site_fract_x
 _atom_site_fract_y
 _atom_site_fract_z
 _atom_site_fract_occupancy
 C  C1  1  0.15440  0.09552  0.72851  1
 C  C2  1  0.03911  0.34290  0.29521  1
 C  C3  1  0.98952  0.12697  0.20160  1
 C  C4  1  0.87426  0.37433  0.76829  1
 F  F1  1  0.32876  0.61511  0.50326  1
 F  F2  1  0.32970  0.48009  0.99221  1
 F  F3  1  0.69896  0.98972  0.50453  1
 F  F4  1  0.69996  0.85469  0.99357  1
 H  H1  1  0.62846  0.38217  0.73434  1
 H  H2  1  0.40020  0.08769  0.76246  1
 H  H3  1  0.89210  0.60893  0.72595  1
 H  H4  1  0.78949  0.03515  0.23055  1
 H  H5  1  0.81210  0.54746  0.30389  1
 H  H6  1  0.23914  0.43473  0.26627  1
 H  H7  1  0.21653  0.92241  0.19294  1
 H  H8  1  0.13657  0.86091  0.77087  1
 Sn  Sn1  1  0.17556  0.10402  0.50789  1
 Sn  Sn2  1  0.85309  0.36579  0.98891  1
