CIF file written using JARVIS-Tools package.
data_SnH12C6F2
_symmetry_space_group_name_H-M  'P1'
_cell_length_a       4.26785
_cell_length_b       4.99403
_cell_length_c       18.0587
_cell_angle_alpha    89.9755
_cell_angle_beta     89.9682
_cell_angle_gamma    64.803

_symmetry_Int_Tables_number  1
_chemical_formula_structural  SnH12C6F2
_chemical_formula_sum  Sn2H24C2F4
_cell_volume  348.2748460646254
_cell_formula_units_Z  2
loop_
  _symmetry_equiv_pos_site_id
 _symmetry_equiv_pos_as_xyz
 1  'x, y, z'
loop_
 _atom_site_type_symbol
 _atom_site_label
 _atom_site_symmetry_multiplicity
 _atom_site_fract_x
 _atom_site_fract_y
 _atom_site_fract_z
 _atom_site_fract_occupancy
 C  C1  1  0.62067  0.50413  0.08478  1
 C  C2  1  0.85510  0.92690  0.69939  1
 C  C3  1  0.65511  0.20845  0.11546  1
 C  C4  1  0.71838  0.19682  0.19943  1
 C  C5  1  0.05647  0.61197  0.35121  1
 C  C6  1  0.60360  0.51243  0.85120  1
 C  C7  1  0.76689  0.90644  0.23648  1
 C  C8  1  0.79760  0.91077  0.32186  1
 C  C9  1  0.64672  0.21264  0.82176  1
 C  C10  1  0.61296  0.21692  0.73636  1
 C  C11  1  0.06566  0.61990  0.58477  1
 C  C12  1  0.80436  0.91519  0.61539  1
 F  F1  1  0.32221  0.04691  0.96996  1
 F  F2  1  0.01366  0.67740  0.96755  1
 F  F3  1  0.63158  0.44659  0.46749  1
 F  F4  1  0.30798  0.07706  0.47006  1
 H  H1  1  0.00086  0.72669  0.21324  1
 H  H2  1  0.55078  0.85145  0.22169  1
 H  H3  1  0.82522  0.55829  0.83624  1
 H  H4  1  0.36771  0.69281  0.82943  1
 H  H5  1  0.45566  0.14768  0.84719  1
 H  H6  1  0.32294  0.56881  0.33621  1
 H  H7  1  0.00320  0.43009  0.32943  1
 H  H8  1  0.39679  0.69007  0.10891  1
 H  H9  1  0.85254  0.53923  0.09672  1
 H  H10  1  0.86907  0.02573  0.08758  1
 H  H11  1  0.42041  0.17673  0.10343  1
 H  H12  1  0.53844  0.94620  0.60321  1
 H  H13  1  0.33216  0.58568  0.59676  1
 H  H14  1  0.02795  0.43350  0.60890  1
 H  H15  1  0.90163  0.04407  0.83898  1
 H  H16  1  0.12559  0.88829  0.71045  1
 H  H17  1  0.66731  0.39714  0.71323  1
 H  H18  1  0.34242  0.27122  0.72138  1
 H  H19  1  0.83570  0.09832  0.58757  1
 H  H20  1  0.50081  0.38186  0.22584  1
 H  H21  1  0.94995  0.23626  0.21034  1
 H  H22  1  0.54260  0.97356  0.34749  1
 H  H23  1  0.88204  0.08103  0.33894  1
 H  H24  1  0.82259  0.74137  0.72573  1
 Sn  Sn1  1  0.55091  0.59753  0.96830  1
 Sn  Sn2  1  0.08956  0.52641  0.46831  1
