CIF file written using JARVIS-Tools package.
data_Al5O8
_symmetry_space_group_name_H-M  'F-43m'
_cell_length_a       5.63159
_cell_length_b       5.63159
_cell_length_c       5.63159
_cell_angle_alpha    59.9999
_cell_angle_beta     60
_cell_angle_gamma    59.9999

_symmetry_Int_Tables_number  216
_chemical_formula_structural  Al5O8
_chemical_formula_sum  Al5O8
_cell_volume  126.29265989415592
_cell_formula_units_Z  1
loop_
  _symmetry_equiv_pos_site_id
 _symmetry_equiv_pos_as_xyz
 1  'x, y, z'
loop_
 _atom_site_type_symbol
 _atom_site_label
 _atom_site_symmetry_multiplicity
 _atom_site_fract_x
 _atom_site_fract_y
 _atom_site_fract_z
 _atom_site_fract_occupancy
 Al  Al1  1  0.61640  0.12787  0.12787  1
 Al  Al2  1  0.12787  0.61640  0.12787  1
 Al  Al3  1  0.12787  0.12787  0.61640  1
 Al  Al4  1  0.12787  0.12787  0.12787  1
 Al  Al5  1  0.75000  0.75000  0.75000  1
 O  O1  1  0.35052  0.88316  0.88316  1
 O  O2  1  0.88316  0.35052  0.88316  1
 O  O3  1  0.88316  0.88316  0.35052  1
 O  O4  1  0.88316  0.88316  0.88316  1
 O  O5  1  0.91403  0.36199  0.36199  1
 O  O6  1  0.36199  0.91403  0.36199  1
 O  O7  1  0.36199  0.36199  0.91403  1
 O  O8  1  0.36199  0.36199  0.36199  1
