CIF file written using JARVIS-Tools package.
data_TbRu2
_symmetry_space_group_name_H-M  'P6_3/mmc'
_cell_length_a       5.26009
_cell_length_b       5.26009
_cell_length_c       8.93912
_cell_angle_alpha    90
_cell_angle_beta     90
_cell_angle_gamma    120

_symmetry_Int_Tables_number  194
_chemical_formula_structural  TbRu2
_chemical_formula_sum  Tb4Ru8
_cell_volume  214.1961721485674
_cell_formula_units_Z  4
loop_
  _symmetry_equiv_pos_site_id
 _symmetry_equiv_pos_as_xyz
 1  'x, y, z'
loop_
 _atom_site_type_symbol
 _atom_site_label
 _atom_site_symmetry_multiplicity
 _atom_site_fract_x
 _atom_site_fract_y
 _atom_site_fract_z
 _atom_site_fract_occupancy
 Ru  Ru1  1  0.00000  0.00000  0.50000  1
 Ru  Ru2  1  0.00000  0.00000  0.00000  1
 Ru  Ru3  1  0.82953  0.17047  0.25000  1
 Ru  Ru4  1  0.82953  0.65905  0.25000  1
 Ru  Ru5  1  0.34095  0.17047  0.25000  1
 Ru  Ru6  1  0.17047  0.82953  0.75000  1
 Ru  Ru7  1  0.17047  0.34095  0.75000  1
 Ru  Ru8  1  0.65905  0.82953  0.75000  1
 Tb  Tb1  1  0.33333  0.66667  0.43299  1
 Tb  Tb2  1  0.66667  0.33333  0.56701  1
 Tb  Tb3  1  0.66667  0.33333  0.93299  1
 Tb  Tb4  1  0.33333  0.66667  0.06701  1
