CIF file written using JARVIS-Tools package.
data_AgH3BrN
_symmetry_space_group_name_H-M  'P2_1/m'
_cell_length_a       5.88465
_cell_length_b       4.24256
_cell_length_c       6.71999
_cell_angle_alpha    84.0299
_cell_angle_beta     90
_cell_angle_gamma    90

_symmetry_Int_Tables_number  11
_chemical_formula_structural  AgH3BrN
_chemical_formula_sum  Ag2H6Br2N2
_cell_volume  166.86131756224415
_cell_formula_units_Z  2
loop_
  _symmetry_equiv_pos_site_id
 _symmetry_equiv_pos_as_xyz
 1  'x, y, z'
loop_
 _atom_site_type_symbol
 _atom_site_label
 _atom_site_symmetry_multiplicity
 _atom_site_fract_x
 _atom_site_fract_y
 _atom_site_fract_z
 _atom_site_fract_occupancy
 Ag  Ag1  1  0.75000  0.34258  0.02891  1
 Ag  Ag2  1  0.25000  0.65742  0.97109  1
 Br  Br1  1  0.75000  0.97985  0.75021  1
 Br  Br2  1  0.25000  0.02015  0.24979  1
 H  H1  1  0.75000  0.38133  0.43201  1
 H  H2  1  0.25000  0.61867  0.56799  1
 H  H3  1  0.89078  0.69231  0.32237  1
 H  H4  1  0.39078  0.30769  0.67763  1
 H  H5  1  0.10922  0.30769  0.67763  1
 H  H6  1  0.60922  0.69231  0.32237  1
 N  N1  1  0.75000  0.55197  0.31177  1
 N  N2  1  0.25000  0.44803  0.68823  1
