CIF file written using JARVIS-Tools package.
data_Ba4SrFe5O15
_symmetry_space_group_name_H-M  'P4/mmm'
_cell_length_a       3.92539
_cell_length_b       3.92539
_cell_length_c       19.6273
_cell_angle_alpha    90
_cell_angle_beta     90
_cell_angle_gamma    90

_symmetry_Int_Tables_number  123
_chemical_formula_structural  Ba4SrFe5O15
_chemical_formula_sum  Ba4SrFe5O5
_cell_volume  302.43192168066906
_cell_formula_units_Z  1
loop_
  _symmetry_equiv_pos_site_id
 _symmetry_equiv_pos_as_xyz
 1  'x, y, z'
loop_
 _atom_site_type_symbol
 _atom_site_label
 _atom_site_symmetry_multiplicity
 _atom_site_fract_x
 _atom_site_fract_y
 _atom_site_fract_z
 _atom_site_fract_occupancy
 Ba  Ba1  1  0.50000  0.50000  0.19615  1
 Ba  Ba2  1  0.50000  0.50000  0.39878  1
 Ba  Ba3  1  0.50000  0.50000  0.60122  1
 Ba  Ba4  1  0.50000  0.50000  0.80385  1
 Fe  Fe1  1  0.00000  0.00000  0.90371  1
 Fe  Fe2  1  0.00000  0.00000  0.09629  1
 Fe  Fe3  1  0.00000  0.00000  0.29816  1
 Fe  Fe4  1  0.00000  0.00000  0.50000  1
 Fe  Fe5  1  0.00000  0.00000  0.70184  1
 O  O1  1  0.00000  0.00000  0.00000  1
 O  O2  1  0.00000  0.00000  0.19500  1
 O  O3  1  0.50000  0.00000  0.50000  1
 O  O4  1  0.00000  0.00000  0.60153  1
 O  O5  1  0.00000  0.00000  0.80500  1
 O  O6  1  0.00000  0.50000  0.90629  1
 O  O7  1  0.00000  0.00000  0.39847  1
 O  O8  1  0.50000  0.00000  0.90629  1
 O  O9  1  0.00000  0.50000  0.50000  1
 O  O10  1  0.00000  0.50000  0.70277  1
 O  O11  1  0.00000  0.50000  0.09371  1
 O  O12  1  0.50000  0.00000  0.09371  1
 O  O13  1  0.50000  0.00000  0.29723  1
 O  O14  1  0.00000  0.50000  0.29723  1
 O  O15  1  0.50000  0.00000  0.70277  1
 Sr  Sr1  1  0.50000  0.50000  0.00000  1
