CIF file written using JARVIS-Tools package.
data_FeO2
_symmetry_space_group_name_H-M  'Pnma'
_cell_length_a       2.77254
_cell_length_b       4.37622
_cell_length_c       9.32496
_cell_angle_alpha    90
_cell_angle_beta     90
_cell_angle_gamma    90

_symmetry_Int_Tables_number  62
_chemical_formula_structural  FeO2
_chemical_formula_sum  Fe4O8
_cell_volume  113.14208871755997
_cell_formula_units_Z  4
loop_
  _symmetry_equiv_pos_site_id
 _symmetry_equiv_pos_as_xyz
 1  'x, y, z'
loop_
 _atom_site_type_symbol
 _atom_site_label
 _atom_site_symmetry_multiplicity
 _atom_site_fract_x
 _atom_site_fract_y
 _atom_site_fract_z
 _atom_site_fract_occupancy
 Fe  Fe1  1  0.25000  0.01365  0.13518  1
 Fe  Fe2  1  0.25000  0.48635  0.63518  1
 Fe  Fe3  1  0.75000  -0.01365  0.86482  1
 Fe  Fe4  1  0.75000  0.51365  0.36482  1
 O  O1  1  0.25000  0.78054  0.96081  1
 O  O2  1  0.25000  0.71946  0.46081  1
 O  O3  1  0.75000  0.21946  0.03919  1
 O  O4  1  0.75000  0.28054  0.53919  1
 O  O5  1  0.25000  0.22321  0.78947  1
 O  O6  1  0.25000  0.27679  0.28947  1
 O  O7  1  0.75000  0.77679  0.21053  1
 O  O8  1  0.75000  0.72321  0.71053  1
