CIF file written using JARVIS-Tools package.
data_Dy2Pt
_symmetry_space_group_name_H-M  'Pnma'
_cell_length_a       4.7476
_cell_length_b       7.11163
_cell_length_c       8.76414
_cell_angle_alpha    90
_cell_angle_beta     90
_cell_angle_gamma    90

_symmetry_Int_Tables_number  62
_chemical_formula_structural  Dy2Pt
_chemical_formula_sum  Dy8Pt4
_cell_volume  295.9053228389089
_cell_formula_units_Z  4
loop_
  _symmetry_equiv_pos_site_id
 _symmetry_equiv_pos_as_xyz
 1  'x, y, z'
loop_
 _atom_site_type_symbol
 _atom_site_label
 _atom_site_symmetry_multiplicity
 _atom_site_fract_x
 _atom_site_fract_y
 _atom_site_fract_z
 _atom_site_fract_occupancy
 Dy  Dy1  1  0.25000  0.14463  0.91849  1
 Dy  Dy2  1  0.25000  0.64463  0.58151  1
 Dy  Dy3  1  0.75000  0.85537  0.08151  1
 Dy  Dy4  1  0.75000  0.35537  0.41849  1
 Dy  Dy5  1  0.25000  0.00927  0.33128  1
 Dy  Dy6  1  0.25000  0.50927  0.16872  1
 Dy  Dy7  1  0.75000  0.99073  0.66872  1
 Dy  Dy8  1  0.75000  0.49073  0.83128  1
 Pt  Pt1  1  0.25000  0.24103  0.59304  1
 Pt  Pt2  1  0.25000  0.74103  0.90696  1
 Pt  Pt3  1  0.75000  0.75897  0.40696  1
 Pt  Pt4  1  0.75000  0.25897  0.09304  1
