CIF file written using JARVIS-Tools package.
data_H20PbC12O4
_symmetry_space_group_name_H-M  'P1'
_cell_length_a       4.07792
_cell_length_b       4.51541
_cell_length_c       16.7168
_cell_angle_alpha    85.7726
_cell_angle_beta     93.7827
_cell_angle_gamma    99.1067

_symmetry_Int_Tables_number  1
_chemical_formula_structural  H20PbC12O4
_chemical_formula_sum  H20PbC2O4
_cell_volume  302.64664626176244
_cell_formula_units_Z  1
loop_
  _symmetry_equiv_pos_site_id
 _symmetry_equiv_pos_as_xyz
 1  'x, y, z'
loop_
 _atom_site_type_symbol
 _atom_site_label
 _atom_site_symmetry_multiplicity
 _atom_site_fract_x
 _atom_site_fract_y
 _atom_site_fract_z
 _atom_site_fract_occupancy
 C  C1  1  0.93491  0.03196  0.62071  1
 C  C2  1  0.53071  0.22734  0.27099  1
 C  C3  1  0.41978  0.33377  0.34704  1
 C  C4  1  0.16742  0.18846  0.48275  1
 C  C5  1  0.03256  0.92964  0.54173  1
 C  C6  1  0.25793  0.07961  0.40383  1
 C  C7  1  0.80763  0.77113  0.67991  1
 C  C8  1  0.70957  0.87404  0.75878  1
 C  C9  1  0.57731  0.61568  0.81819  1
 C  C10  1  0.48557  0.72548  0.89682  1
 C  C11  1  0.32727  0.47103  0.95401  1
 C  C12  1  0.21757  0.57750  0.03015  1
 H  H1  1  0.63702  0.46758  0.37657  1
 H  H2  1  0.38913  0.32255  0.51111  1
 H  H3  1  0.15149  0.17264  0.64911  1
 H  H4  1  0.74300  0.17844  0.60839  1
 H  H5  1  0.24598  0.49195  0.32767  1
 H  H6  1  0.51983  0.02261  0.74593  1
 H  H7  1  0.98311  0.34244  0.47062  1
 H  H8  1  0.11036  0.33590  0.92475  1
 H  H9  1  0.50327  0.31450  0.97302  1
 H  H10  1  0.35672  0.47924  0.79008  1
 H  H11  1  0.76363  0.46385  0.83063  1
 H  H12  1  0.59117  0.62999  0.65159  1
 H  H13  1  0.92708  0.01338  0.78725  1
 H  H14  1  -0.00043  0.62478  0.69244  1
 H  H15  1  0.22060  0.77935  0.55442  1
 H  H16  1  0.03392  -0.04104  0.37318  1
 H  H17  1  0.42779  -0.08689  0.41703  1
 H  H18  1  0.31294  0.88953  0.88335  1
 H  H19  1  0.70849  0.84920  0.92715  1
 H  H20  1  0.81436  0.79233  0.51295  1
 O  O1  1  0.38945  -0.02791  0.24663  1
 O  O2  1  -0.01753  0.41893  0.06784  1
 O  O3  1  0.76543  0.38681  0.23336  1
 O  O4  1  0.36048  0.83193  0.05472  1
 Pb  Pb1  1  0.87437  0.90254  0.15062  1
