CIF file written using JARVIS-Tools package.
data_H8PbC6O4
_symmetry_space_group_name_H-M  'P-1'
_cell_length_a       4.30988
_cell_length_b       7.97626
_cell_length_c       10.7877
_cell_angle_alpha    77.1047
_cell_angle_beta     84.6166
_cell_angle_gamma    76.9507

_symmetry_Int_Tables_number  2
_chemical_formula_structural  H8PbC6O4
_chemical_formula_sum  H6Pb2C2O8
_cell_volume  351.7880212848235
_cell_formula_units_Z  2
loop_
  _symmetry_equiv_pos_site_id
 _symmetry_equiv_pos_as_xyz
 1  'x, y, z'
loop_
 _atom_site_type_symbol
 _atom_site_label
 _atom_site_symmetry_multiplicity
 _atom_site_fract_x
 _atom_site_fract_y
 _atom_site_fract_z
 _atom_site_fract_occupancy
 C  C1  1  0.67639  0.24034  0.68037  1
 C  C2  1  0.70550  0.22309  0.44742  1
 C  C3  1  0.72572  0.21125  0.21355  1
 C  C4  1  0.51817  0.71894  0.33428  1
 C  C5  1  0.51817  0.21914  0.33423  1
 C  C6  1  0.70548  0.72316  0.44740  1
 C  C7  1  0.72523  0.71183  0.21340  1
 C  C8  1  0.67641  0.74053  0.68032  1
 C  C9  1  0.48909  0.73635  0.56719  1
 C  C10  1  0.48907  0.23642  0.56717  1
 C  C11  1  0.46935  0.74765  0.80120  1
 C  C12  1  0.46885  0.24821  0.80106  1
 H  H1  1  0.82451  0.33551  0.42249  1
 H  H2  1  0.32224  0.33488  0.31600  1
 H  H3  1  0.32152  0.83432  0.31628  1
 H  H4  1  0.41168  0.10218  0.35572  1
 H  H5  1  0.87230  0.12459  0.69859  1
 H  H6  1  0.87302  0.62513  0.69832  1
 H  H7  1  0.78290  0.35729  0.65889  1
 H  H8  1  0.41266  0.60164  0.35572  1
 H  H9  1  0.29806  0.85542  0.54853  1
 H  H10  1  0.37003  0.12401  0.59209  1
 H  H11  1  0.37050  0.62377  0.59218  1
 H  H12  1  0.78197  0.85781  0.65889  1
 H  H13  1  0.82404  0.83575  0.42240  1
 H  H14  1  0.89620  0.10386  0.46608  1
 H  H15  1  0.89655  0.60410  0.46606  1
 H  H16  1  0.29838  0.35566  0.54851  1
 O  O1  1  0.21324  0.36482  0.79881  1
 O  O2  1  0.55591  0.63296  0.90379  1
 O  O3  1  0.98164  0.59587  0.21528  1
 O  O4  1  0.98132  0.09464  0.21581  1
 O  O5  1  0.63866  0.82650  0.11080  1
 O  O6  1  0.64034  0.32578  0.11076  1
 O  O7  1  0.21295  0.86363  0.79932  1
 O  O8  1  0.55425  0.13368  0.90383  1
 Pb  Pb1  1  0.09654  0.97983  0.00739  1
 Pb  Pb2  1  0.09808  0.47968  0.00722  1
