CIF file written using JARVIS-Tools package.
data_RbIO
_symmetry_space_group_name_H-M  'Pm'
_cell_length_a       7.07586
_cell_length_b       5.19026
_cell_length_c       4.40203
_cell_angle_alpha    90
_cell_angle_beta     90
_cell_angle_gamma    45.8575

_symmetry_Int_Tables_number  6
_chemical_formula_structural  RbIO
_chemical_formula_sum  RbIO
_cell_volume  116.0135882262301
_cell_formula_units_Z  1
loop_
  _symmetry_equiv_pos_site_id
 _symmetry_equiv_pos_as_xyz
 1  'x, y, z'
loop_
 _atom_site_type_symbol
 _atom_site_label
 _atom_site_symmetry_multiplicity
 _atom_site_fract_x
 _atom_site_fract_y
 _atom_site_fract_z
 _atom_site_fract_occupancy
 I  I1  1  0.45208  -0.04305  0.00000  1
 O  O1  1  0.06630  0.35812  0.00000  1
 Rb  Rb1  1  -0.06191  -0.02138  0.00000  1
