CIF file written using JARVIS-Tools package.
data_H21C11
_symmetry_space_group_name_H-M  'P-1'
_cell_length_a       6.03125
_cell_length_b       8.02999
_cell_length_c       10.465
_cell_angle_alpha    87.1227
_cell_angle_beta     87.6165
_cell_angle_gamma    68.466

_symmetry_Int_Tables_number  2
_chemical_formula_structural  H21C11
_chemical_formula_sum  H42C22
_cell_volume  470.7109328426954
_cell_formula_units_Z  2
loop_
  _symmetry_equiv_pos_site_id
 _symmetry_equiv_pos_as_xyz
 1  'x, y, z'
loop_
 _atom_site_type_symbol
 _atom_site_label
 _atom_site_symmetry_multiplicity
 _atom_site_fract_x
 _atom_site_fract_y
 _atom_site_fract_z
 _atom_site_fract_occupancy
 C  C1  1  0.81702  0.53087  0.63726  1
 C  C2  1  0.64056  0.97004  0.31550  1
 C  C3  1  0.35944  0.02996  0.68450  1
 C  C4  1  0.32902  0.46764  0.23702  1
 C  C5  1  0.67098  0.53236  0.76298  1
 C  C6  1  0.85624  0.43307  0.86533  1
 C  C7  1  0.14376  0.56693  0.13467  1
 C  C8  1  0.06883  0.88481  0.77293  1
 C  C9  1  0.48173  0.58462  0.24834  1
 C  C10  1  0.93117  0.11519  0.22707  1
 C  C11  1  0.51827  0.41538  0.75166  1
 C  C12  1  0.58428  0.04998  0.01347  1
 C  C13  1  0.69411  0.21121  0.42646  1
 C  C14  1  0.18298  0.46913  0.36274  1
 C  C15  1  0.30589  0.78879  0.57354  1
 C  C16  1  0.68325  0.14783  0.29047  1
 C  C17  1  0.31675  0.85217  0.70953  1
 C  C18  1  0.41572  0.95002  0.98653  1
 C  C19  1  0.51212  0.72545  0.80007  1
 C  C20  1  0.45769  0.21926  0.08439  1
 C  C21  1  0.54231  0.78074  0.91561  1
 C  C22  1  0.48788  0.27455  0.19993  1
 H  H1  1  0.31519  0.31200  0.02652  1
 H  H2  1  0.03484  0.75931  0.78235  1
 H  H3  1  0.96516  0.24069  0.21765  1
 H  H4  1  0.92750  0.98033  0.71377  1
 H  H5  1  0.07250  0.01967  0.28623  1
 H  H6  1  0.05061  0.93722  0.86887  1
 H  H7  1  0.94939  0.06278  0.13113  1
 H  H8  1  0.35261  0.91152  0.07972  1
 H  H9  1  0.65300  0.89478  0.22967  1
 H  H10  1  0.64739  0.08848  0.92028  1
 H  H11  1  0.53988  0.21486  0.48669  1
 H  H12  1  0.68481  0.68800  0.97348  1
 H  H13  1  0.22843  0.11753  0.61640  1
 H  H14  1  0.62192  0.53316  0.31892  1
 H  H15  1  0.37808  0.46684  0.68108  1
 H  H16  1  0.36612  0.72009  0.27593  1
 H  H17  1  0.63388  0.27991  0.72407  1
 H  H18  1  0.56722  0.59636  0.15536  1
 H  H19  1  0.43278  0.40364  0.84464  1
 H  H20  1  0.01767  0.49984  0.12077  1
 H  H21  1  0.77157  0.88247  0.38360  1
 H  H22  1  0.22763  0.58253  0.04182  1
 H  H23  1  0.04052  0.70209  0.16754  1
 H  H24  1  0.95948  0.29791  0.83246  1
 H  H25  1  0.09887  0.36873  0.36234  1
 H  H26  1  0.74308  0.95607  0.06023  1
 H  H27  1  0.90113  0.63127  0.63766  1
 H  H28  1  0.95950  0.39868  0.62780  1
 H  H29  1  0.28985  0.44323  0.44829  1
 H  H30  1  0.71015  0.55677  0.55171  1
 H  H31  1  0.77237  0.41747  0.95818  1
 H  H32  1  0.53805  0.00144  0.64110  1
 H  H33  1  0.98233  0.50016  0.87923  1
 H  H34  1  0.34700  0.10522  0.77033  1
 H  H35  1  0.46195  -0.00144  0.35890  1
 H  H36  1  0.46012  0.78514  0.51331  1
 H  H37  1  0.71356  0.34096  0.42849  1
 H  H38  1  0.28644  0.65904  0.57151  1
 H  H39  1  0.85231  0.11276  0.47226  1
 H  H40  1  0.14769  0.88724  0.52774  1
 H  H41  1  0.04050  0.60132  0.37220  1
 H  H42  1  0.25692  0.04393  0.93977  1
