CIF file written using JARVIS-Tools package.
data_Bi2Pt3Se2
_symmetry_space_group_name_H-M  'I2_13'
_cell_length_a       7.50422
_cell_length_b       7.50422
_cell_length_c       7.50422
_cell_angle_alpha    109.471
_cell_angle_beta     109.471
_cell_angle_gamma    109.471

_symmetry_Int_Tables_number  199
_chemical_formula_structural  Bi2Pt3Se2
_chemical_formula_sum  Bi4Pt6Se4
_cell_volume  325.308135755647
_cell_formula_units_Z  2
loop_
  _symmetry_equiv_pos_site_id
 _symmetry_equiv_pos_as_xyz
 1  'x, y, z'
loop_
 _atom_site_type_symbol
 _atom_site_label
 _atom_site_symmetry_multiplicity
 _atom_site_fract_x
 _atom_site_fract_y
 _atom_site_fract_z
 _atom_site_fract_occupancy
 Bi  Bi1  1  0.03492  0.50000  -0.00000  1
 Bi  Bi2  1  -0.00000  0.03492  0.50000  1
 Bi  Bi3  1  0.50000  0.00000  0.03492  1
 Bi  Bi4  1  0.46508  0.46508  0.46508  1
 Pt  Pt1  1  0.54618  0.75000  0.29618  1
 Pt  Pt2  1  0.25000  0.20382  0.95382  1
 Pt  Pt3  1  0.29618  0.54618  0.75000  1
 Pt  Pt4  1  0.95382  0.25000  0.20382  1
 Pt  Pt5  1  0.75000  0.29618  0.54618  1
 Pt  Pt6  1  0.20382  0.95382  0.25000  1
 Se  Se1  1  0.56756  0.50000  0.00000  1
 Se  Se2  1  0.00000  0.56756  0.50000  1
 Se  Se3  1  0.50000  0.00000  0.56756  1
 Se  Se4  1  0.93244  0.93244  0.93244  1
