CIF file written using JARVIS-Tools package.
data_As4PRh10
_symmetry_space_group_name_H-M  'R-3m'
_cell_length_a       16.6537
_cell_length_b       16.6537
_cell_length_c       16.6537
_cell_angle_alpha    13.9303
_cell_angle_beta     13.9303
_cell_angle_gamma    13.9303

_symmetry_Int_Tables_number  166
_chemical_formula_structural  As4PRh10
_chemical_formula_sum  As4PRh0
_cell_volume  232.96942478467307
_cell_formula_units_Z  1
loop_
  _symmetry_equiv_pos_site_id
 _symmetry_equiv_pos_as_xyz
 1  'x, y, z'
loop_
 _atom_site_type_symbol
 _atom_site_label
 _atom_site_symmetry_multiplicity
 _atom_site_fract_x
 _atom_site_fract_y
 _atom_site_fract_z
 _atom_site_fract_occupancy
 As  As1  1  0.60131  0.60131  0.60131  1
 As  As2  1  0.20048  0.20048  0.20048  1
 As  As3  1  0.79952  0.79952  0.79952  1
 As  As4  1  0.39869  0.39869  0.39869  1
 P  P1  1  0.00000  0.00000  0.00000  1
 Rh  Rh1  1  0.04752  0.04752  0.04752  1
 Rh  Rh2  1  0.85013  0.85013  0.85013  1
 Rh  Rh3  1  0.44918  0.44918  0.44918  1
 Rh  Rh4  1  0.65163  0.65163  0.65163  1
 Rh  Rh5  1  0.25128  0.25128  0.25128  1
 Rh  Rh6  1  0.34837  0.34837  0.34837  1
 Rh  Rh7  1  0.14987  0.14987  0.14987  1
 Rh  Rh8  1  0.74872  0.74872  0.74872  1
 Rh  Rh9  1  0.95248  0.95248  0.95248  1
 Rh  Rh10  1  0.55082  0.55082  0.55082  1
