CIF file written using JARVIS-Tools package.
data_RbV2FeAg2O8
_symmetry_space_group_name_H-M  'P-3'
_cell_length_a       5.43011
_cell_length_b       14.849
_cell_length_c       5.4301
_cell_angle_alpha    89.9999
_cell_angle_beta     59.9997
_cell_angle_gamma    89.9997

_symmetry_Int_Tables_number  147
_chemical_formula_structural  RbV2FeAg2O8
_chemical_formula_sum  Rb2V4Fe2Ag4O6
_cell_volume  379.17746953907726
_cell_formula_units_Z  2
loop_
  _symmetry_equiv_pos_site_id
 _symmetry_equiv_pos_as_xyz
 1  'x, y, z'
loop_
 _atom_site_type_symbol
 _atom_site_label
 _atom_site_symmetry_multiplicity
 _atom_site_fract_x
 _atom_site_fract_y
 _atom_site_fract_z
 _atom_site_fract_occupancy
 Ag  Ag1  1  0.66666  0.87103  0.66667  1
 Ag  Ag2  1  0.66667  0.36544  0.66667  1
 Ag  Ag3  1  0.33333  0.62897  0.33333  1
 Ag  Ag4  1  0.33332  0.13456  0.33333  1
 Fe  Fe1  1  -0.00000  0.75000  0.00000  1
 Fe  Fe2  1  1.00000  0.25000  0.00000  1
 O  O1  1  0.75688  0.17722  0.92290  1
 O  O2  1  0.33333  0.47174  0.33333  1
 O  O3  1  0.92290  0.17722  0.32022  1
 O  O4  1  0.66666  0.02826  0.66667  1
 O  O5  1  0.66667  0.51920  0.66666  1
 O  O6  1  0.67979  0.32278  0.24312  1
 O  O7  1  0.67104  0.82955  0.25760  1
 O  O8  1  0.33333  0.98080  0.33334  1
 O  O9  1  0.25760  0.82955  0.07136  1
 O  O10  1  0.07710  0.32278  0.67978  1
 O  O11  1  0.92864  0.67045  0.32895  1
 O  O12  1  0.32020  0.17722  0.75688  1
 O  O13  1  0.32895  0.67045  0.74240  1
 O  O14  1  0.24311  0.32278  0.07710  1
 O  O15  1  0.74240  0.67045  0.92864  1
 O  O16  1  0.07135  0.82955  0.67105  1
 Rb  Rb1  1  -0.00000  0.49796  -0.00000  1
 Rb  Rb2  1  -0.00001  0.00204  0.00000  1
 V  V1  1  0.33333  0.86704  0.33333  1
 V  V2  1  0.33333  0.35842  0.33333  1
 V  V3  1  0.66666  0.63296  0.66667  1
 V  V4  1  0.66666  0.14158  0.66667  1
