CIF file written using JARVIS-Tools package.
data_Al8V5
_symmetry_space_group_name_H-M  'Cm'
_cell_length_a       7.99696
_cell_length_b       7.99695
_cell_length_c       7.92764
_cell_angle_alpha    71.2547
_cell_angle_beta     71.2547
_cell_angle_gamma    110.355

_symmetry_Int_Tables_number  8
_chemical_formula_structural  Al8V5
_chemical_formula_sum  Al6V0
_cell_volume  392.9089502531833
_cell_formula_units_Z  2
loop_
  _symmetry_equiv_pos_site_id
 _symmetry_equiv_pos_as_xyz
 1  'x, y, z'
loop_
 _atom_site_type_symbol
 _atom_site_label
 _atom_site_symmetry_multiplicity
 _atom_site_fract_x
 _atom_site_fract_y
 _atom_site_fract_z
 _atom_site_fract_occupancy
 Al  Al1  1  0.64211  0.38218  0.35065  1
 Al  Al2  1  0.34973  0.76426  0.98346  1
 Al  Al3  1  0.65471  0.65471  0.59763  1
 Al  Al4  1  0.38218  0.64211  0.35065  1
 Al  Al5  1  0.76426  0.34973  0.98346  1
 Al  Al6  1  0.00876  0.35771  0.26171  1
 Al  Al7  1  0.35771  0.00876  0.26171  1
 Al  Al8  1  0.64753  0.00247  0.35391  1
 Al  Al9  1  0.25382  0.61031  0.73637  1
 Al  Al10  1  0.74241  0.00769  0.64670  1
 Al  Al11  1  0.24562  0.24562  0.41480  1
 Al  Al12  1  0.00769  0.74241  0.64670  1
 Al  Al13  1  0.64481  0.64481  0.99888  1
 Al  Al14  1  0.00247  0.64753  0.35391  1
 Al  Al15  1  0.35640  0.35640  0.99887  1
 Al  Al16  1  0.61031  0.25382  0.73637  1
 V  V1  1  0.20067  0.00461  0.00407  1
 V  V2  1  0.34078  0.34078  0.66729  1
 V  V3  1  0.66039  0.99094  0.00704  1
 V  V4  1  0.99094  0.66039  0.00704  1
 V  V5  1  0.79129  0.79129  0.20569  1
 V  V6  1  0.34258  0.00301  0.64534  1
 V  V7  1  0.00461  0.20067  0.00407  1
 V  V8  1  0.00213  0.00213  0.33327  1
 V  V9  1  0.00301  0.34258  0.64534  1
 V  V10  1  0.99308  0.99308  0.80505  1
