CIF file written using JARVIS-Tools package.
data_H11C7
_symmetry_space_group_name_H-M  'P2_1/c'
_cell_length_a       6.18288
_cell_length_b       9.48714
_cell_length_c       9.78393
_cell_angle_alpha    90
_cell_angle_beta     90
_cell_angle_gamma    96.0564

_symmetry_Int_Tables_number  14
_chemical_formula_structural  H11C7
_chemical_formula_sum  H44C28
_cell_volume  570.7009585254164
_cell_formula_units_Z  4
loop_
  _symmetry_equiv_pos_site_id
 _symmetry_equiv_pos_as_xyz
 1  'x, y, z'
loop_
 _atom_site_type_symbol
 _atom_site_label
 _atom_site_symmetry_multiplicity
 _atom_site_fract_x
 _atom_site_fract_y
 _atom_site_fract_z
 _atom_site_fract_occupancy
 C  C1  1  0.49123  0.68788  0.33646  1
 C  C2  1  0.61566  0.72760  0.20258  1
 C  C3  1  0.36005  0.24942  0.26453  1
 C  C4  1  0.63994  0.75058  0.73547  1
 C  C5  1  0.13995  0.25058  0.76453  1
 C  C6  1  0.86006  0.74942  0.23547  1
 C  C7  1  0.54855  0.86967  0.14849  1
 C  C8  1  0.95145  0.63033  0.64849  1
 C  C9  1  0.45145  0.13033  0.85151  1
 C  C10  1  0.99123  0.18788  0.16354  1
 C  C11  1  0.00877  0.81212  0.83646  1
 C  C12  1  0.04855  0.36967  0.35151  1
 C  C13  1  0.88434  0.77240  0.70258  1
 C  C14  1  0.38434  0.27240  0.79743  1
 C  C15  1  0.70785  0.51717  0.05460  1
 C  C16  1  0.50877  0.31212  0.66354  1
 C  C17  1  0.05950  0.11008  0.40270  1
 C  C18  1  0.55950  0.61009  0.09730  1
 C  C19  1  0.44050  0.38992  0.90270  1
 C  C20  1  0.85048  0.08967  0.45947  1
 C  C21  1  0.14952  0.91033  0.54053  1
 C  C22  1  0.94050  0.88991  0.59730  1
 C  C23  1  0.35048  0.58967  0.04053  1
 C  C24  1  0.20785  0.01717  0.44540  1
 C  C25  1  0.79215  0.98283  0.55460  1
 C  C26  1  0.29215  0.48283  0.94540  1
 C  C27  1  0.64952  0.41033  0.95947  1
 C  C28  1  0.11566  0.22760  0.29743  1
 H  H1  1  0.60791  0.66399  0.80931  1
 H  H2  1  0.91750  0.65422  0.28095  1
 H  H3  1  0.04314  0.22194  0.85663  1
 H  H4  1  0.08250  0.34578  0.71905  1
 H  H5  1  0.58250  0.84578  0.78095  1
 H  H6  1  0.41750  0.15422  0.21905  1
 H  H7  1  0.89209  0.83601  0.30931  1
 H  H8  1  0.10791  0.16399  0.69069  1
 H  H9  1  0.72942  0.15932  0.42977  1
 H  H10  1  0.62799  0.97350  0.59610  1
 H  H11  1  0.46490  0.23044  0.58589  1
 H  H12  1  0.96490  0.73044  0.91411  1
 H  H13  1  0.03510  0.26956  0.08589  1
 H  H14  1  0.46662  0.41443  0.62400  1
 H  H15  1  0.96662  0.91443  0.87600  1
 H  H16  1  0.03338  0.08557  0.12400  1
 H  H17  1  0.53510  0.76956  0.41412  1
 H  H18  1  0.62985  0.89855  0.05091  1
 H  H19  1  0.87015  0.60145  0.55091  1
 H  H20  1  0.12985  0.39855  0.44909  1
 H  H21  1  0.59702  0.95407  0.22267  1
 H  H22  1  0.40298  0.04593  0.77733  1
 H  H23  1  0.90298  0.54593  0.72267  1
 H  H24  1  0.09702  0.45407  0.27733  1
 H  H25  1  0.37015  0.10145  0.94909  1
 H  H26  1  0.95686  0.77806  0.14337  1
 H  H27  1  0.81431  0.17975  0.17873  1
 H  H28  1  0.68569  0.32025  0.67873  1
 H  H29  1  0.54314  0.72194  0.64337  1
 H  H30  1  0.45686  0.27806  0.35663  1
 H  H31  1  0.87201  0.52650  0.09610  1
 H  H32  1  0.12799  0.47350  0.90390  1
 H  H33  1  0.37201  0.02650  0.40390  1
 H  H34  1  0.22942  0.65931  0.07023  1
 H  H35  1  0.18569  0.82025  0.82127  1
 H  H36  1  0.77058  0.34068  0.92977  1
 H  H37  1  0.12798  0.63369  0.63283  1
 H  H38  1  0.87202  0.36631  0.36717  1
 H  H39  1  0.53338  0.58557  0.37600  1
 H  H40  1  0.62798  0.13369  0.86717  1
 H  H41  1  0.37202  0.86631  0.13283  1
 H  H42  1  0.31431  0.67975  0.32127  1
 H  H43  1  0.27058  0.84068  0.57023  1
 H  H44  1  0.39209  0.33601  0.19069  1
