CIF file written using JARVIS-Tools package.
data_SrGa2Se4
_symmetry_space_group_name_H-M  'Cccm'
_cell_length_a       6.31652
_cell_length_b       6.31652
_cell_length_c       10.9968
_cell_angle_alpha    90
_cell_angle_beta     90
_cell_angle_gamma    119.772

_symmetry_Int_Tables_number  66
_chemical_formula_structural  SrGa2Se4
_chemical_formula_sum  Sr2Ga4Se8
_cell_volume  380.8412914780574
_cell_formula_units_Z  2
loop_
  _symmetry_equiv_pos_site_id
 _symmetry_equiv_pos_as_xyz
 1  'x, y, z'
loop_
 _atom_site_type_symbol
 _atom_site_label
 _atom_site_symmetry_multiplicity
 _atom_site_fract_x
 _atom_site_fract_y
 _atom_site_fract_z
 _atom_site_fract_occupancy
 Ga  Ga1  1  0.76340  0.23957  0.50000  1
 Ga  Ga2  1  0.23660  0.76043  0.50000  1
 Ga  Ga3  1  0.76043  0.23660  0.00000  1
 Ga  Ga4  1  0.23957  0.76340  0.00000  1
 Se  Se1  1  0.34637  0.18771  0.50000  1
 Se  Se2  1  0.65363  0.81229  0.50000  1
 Se  Se3  1  0.81229  0.65363  0.00000  1
 Se  Se4  1  0.18771  0.34637  0.00000  1
 Se  Se5  1  0.50000  -0.00000  0.82894  1
 Se  Se6  1  0.00000  0.50000  0.67106  1
 Se  Se7  1  0.50000  -0.00000  0.17106  1
 Se  Se8  1  0.00000  0.50000  0.32894  1
 Sr  Sr1  1  0.50000  0.50000  0.75000  1
 Sr  Sr2  1  0.50000  0.50000  0.25000  1
