CIF file written using JARVIS-Tools package.
data_SbIO
_symmetry_space_group_name_H-M  'P-6m2'
_cell_length_a       4.94993
_cell_length_b       4.94992
_cell_length_c       3.50536
_cell_angle_alpha    90
_cell_angle_beta     90
_cell_angle_gamma    120

_symmetry_Int_Tables_number  187
_chemical_formula_structural  SbIO
_chemical_formula_sum  SbIO
_cell_volume  74.38073249931887
_cell_formula_units_Z  1
loop_
  _symmetry_equiv_pos_site_id
 _symmetry_equiv_pos_as_xyz
 1  'x, y, z'
loop_
 _atom_site_type_symbol
 _atom_site_label
 _atom_site_symmetry_multiplicity
 _atom_site_fract_x
 _atom_site_fract_y
 _atom_site_fract_z
 _atom_site_fract_occupancy
 I  I1  1  0.00000  0.00000  0.00000  1
 O  O1  1  0.33333  0.66667  0.00000  1
 Sb  Sb1  1  0.66667  0.33333  0.00000  1
