CIF file written using JARVIS-Tools package.
data_ErMo6S8
_symmetry_space_group_name_H-M  'R-3'
_cell_length_a       6.47474
_cell_length_b       6.47474
_cell_length_c       6.47474
_cell_angle_alpha    89.3092
_cell_angle_beta     89.3092
_cell_angle_gamma    89.3092

_symmetry_Int_Tables_number  148
_chemical_formula_structural  ErMo6S8
_chemical_formula_sum  ErMo6S8
_cell_volume  271.3767708415782
_cell_formula_units_Z  1
loop_
  _symmetry_equiv_pos_site_id
 _symmetry_equiv_pos_as_xyz
 1  'x, y, z'
loop_
 _atom_site_type_symbol
 _atom_site_label
 _atom_site_symmetry_multiplicity
 _atom_site_fract_x
 _atom_site_fract_y
 _atom_site_fract_z
 _atom_site_fract_occupancy
 Er  Er1  1  0.00000  0.00000  0.00000  1
 Mo  Mo1  1  0.77649  0.57926  0.44003  1
 Mo  Mo2  1  0.44003  0.77649  0.57926  1
 Mo  Mo3  1  0.57926  0.44003  0.77649  1
 Mo  Mo4  1  0.22351  0.42074  0.55997  1
 Mo  Mo5  1  0.55997  0.22351  0.42074  1
 Mo  Mo6  1  0.42074  0.55997  0.22351  1
 S  S1  1  0.76304  0.76304  0.76304  1
 S  S2  1  0.23696  0.23696  0.23696  1
 S  S3  1  0.24407  0.63346  0.87299  1
 S  S4  1  0.87299  0.24407  0.63346  1
 S  S5  1  0.63346  0.87299  0.24407  1
 S  S6  1  0.75593  0.36654  0.12701  1
 S  S7  1  0.12701  0.75593  0.36654  1
 S  S8  1  0.36654  0.12701  0.75593  1
