CIF file written using JARVIS-Tools package.
data_MoPO5
_symmetry_space_group_name_H-M  'C2/c'
_cell_length_a       5.18728
_cell_length_b       5.18728
_cell_length_c       7.40925
_cell_angle_alpha    68.2929
_cell_angle_beta     68.2928
_cell_angle_gamma    88.0169

_symmetry_Int_Tables_number  15
_chemical_formula_structural  MoPO5
_chemical_formula_sum  Mo2P2O0
_cell_volume  170.88406474315678
_cell_formula_units_Z  2
loop_
  _symmetry_equiv_pos_site_id
 _symmetry_equiv_pos_as_xyz
 1  'x, y, z'
loop_
 _atom_site_type_symbol
 _atom_site_label
 _atom_site_symmetry_multiplicity
 _atom_site_fract_x
 _atom_site_fract_y
 _atom_site_fract_z
 _atom_site_fract_occupancy
 Mo  Mo1  1  0.77474  0.27470  -0.02318  1
 Mo  Mo2  1  0.27470  0.77474  0.47682  1
 O  O1  1  0.58765  0.96180  0.22681  1
 O  O2  1  0.96180  0.58765  0.72681  1
 O  O3  1  0.11981  0.09084  0.90518  1
 O  O4  1  0.09084  0.11981  0.40518  1
 O  O5  1  0.43624  0.91332  0.63481  1
 O  O6  1  0.91332  0.43624  0.13481  1
 O  O7  1  0.63621  0.11322  0.81878  1
 O  O8  1  0.11322  0.63621  0.31878  1
 O  O9  1  0.45864  0.42972  0.54846  1
 O  O10  1  0.42972  0.45864  0.04846  1
 P  P1  1  0.41160  0.13791  0.72680  1
 P  P2  1  0.13791  0.41160  0.22680  1
