CIF file written using JARVIS-Tools package.
data_AlAg3
_symmetry_space_group_name_H-M  'R3'
_cell_length_a       6.99551
_cell_length_b       6.99551
_cell_length_c       6.99551
_cell_angle_alpha    90.2262
_cell_angle_beta     90.2262
_cell_angle_gamma    90.2262

_symmetry_Int_Tables_number  146
_chemical_formula_structural  AlAg3
_chemical_formula_sum  Al5Ag5
_cell_volume  342.33247599812984
_cell_formula_units_Z  5
loop_
  _symmetry_equiv_pos_site_id
 _symmetry_equiv_pos_as_xyz
 1  'x, y, z'
loop_
 _atom_site_type_symbol
 _atom_site_label
 _atom_site_symmetry_multiplicity
 _atom_site_fract_x
 _atom_site_fract_y
 _atom_site_fract_z
 _atom_site_fract_occupancy
 Ag  Ag1  1  0.88087  0.03965  0.70120  1
 Ag  Ag2  1  0.45073  0.19990  0.12902  1
 Ag  Ag3  1  0.19990  0.12902  0.45073  1
 Ag  Ag4  1  0.12902  0.45073  0.19990  1
 Ag  Ag5  1  0.96129  0.80133  0.36031  1
 Ag  Ag6  1  0.93479  0.43944  0.56599  1
 Ag  Ag7  1  0.63061  0.54422  0.29794  1
 Ag  Ag8  1  0.70120  0.88087  0.03965  1
 Ag  Ag9  1  0.80133  0.36031  0.96129  1
 Ag  Ag10  1  0.43944  0.56599  0.93479  1
 Ag  Ag11  1  0.03965  0.70120  0.88087  1
 Ag  Ag12  1  0.29794  0.63061  0.54422  1
 Ag  Ag13  1  0.36031  0.96129  0.80133  1
 Ag  Ag14  1  0.56599  0.93479  0.43944  1
 Ag  Ag15  1  0.54422  0.29794  0.63061  1
 Al  Al1  1  0.05825  0.05825  0.05825  1
 Al  Al2  1  0.80330  0.19315  0.31718  1
 Al  Al3  1  0.31718  0.80330  0.19315  1
 Al  Al4  1  0.19315  0.31718  0.80330  1
 Al  Al5  1  0.69082  0.69082  0.69082  1
