CIF file written using JARVIS-Tools package.
data_Ag6SbAsS6
_symmetry_space_group_name_H-M  'R3'
_cell_length_a       6.95671
_cell_length_b       6.95671
_cell_length_c       6.95672
_cell_angle_alpha    101.867
_cell_angle_beta     101.867
_cell_angle_gamma    101.867

_symmetry_Int_Tables_number  146
_chemical_formula_structural  Ag6SbAsS6
_chemical_formula_sum  Ag6SbAsS6
_cell_volume  311.4462460926607
_cell_formula_units_Z  1
loop_
  _symmetry_equiv_pos_site_id
 _symmetry_equiv_pos_as_xyz
 1  'x, y, z'
loop_
 _atom_site_type_symbol
 _atom_site_label
 _atom_site_symmetry_multiplicity
 _atom_site_fract_x
 _atom_site_fract_y
 _atom_site_fract_z
 _atom_site_fract_occupancy
 Ag  Ag1  1  0.96781  0.78935  0.43786  1
 Ag  Ag2  1  0.43786  0.96781  0.78935  1
 Ag  Ag3  1  0.78935  0.43786  0.96781  1
 Ag  Ag4  1  0.93913  0.25770  0.45595  1
 Ag  Ag5  1  0.45595  0.93913  0.25770  1
 Ag  Ag6  1  0.25770  0.45595  0.93913  1
 As  As1  1  0.01193  0.01193  0.01193  1
 S  S1  1  0.10320  0.77107  0.78645  1
 S  S2  1  0.78645  0.10320  0.77107  1
 S  S3  1  0.77107  0.78645  0.10320  1
 S  S4  1  0.28726  0.26285  0.61707  1
 S  S5  1  0.61707  0.28726  0.26285  1
 S  S6  1  0.26285  0.61707  0.28726  1
 Sb  Sb1  1  0.53237  0.53237  0.53237  1
