CIF file written using JARVIS-Tools package.
data_ZnH14C9O4
_symmetry_space_group_name_H-M  'P1'
_cell_length_a       4.13376
_cell_length_b       4.48904
_cell_length_c       13.8587
_cell_angle_alpha    88.1944
_cell_angle_beta     85.2204
_cell_angle_gamma    64.4131

_symmetry_Int_Tables_number  1
_chemical_formula_structural  ZnH14C9O4
_chemical_formula_sum  ZnH4C9O4
_cell_volume  231.14107736550426
_cell_formula_units_Z  1
loop_
  _symmetry_equiv_pos_site_id
 _symmetry_equiv_pos_as_xyz
 1  'x, y, z'
loop_
 _atom_site_type_symbol
 _atom_site_label
 _atom_site_symmetry_multiplicity
 _atom_site_fract_x
 _atom_site_fract_y
 _atom_site_fract_z
 _atom_site_fract_occupancy
 C  C1  1  0.22442  0.54960  0.67133  1
 C  C2  1  0.52179  0.36255  0.39577  1
 C  C3  1  0.42935  0.36462  0.57840  1
 C  C4  1  0.29607  0.55593  0.48536  1
 C  C5  1  0.37902  0.35506  0.76227  1
 C  C6  1  0.19451  0.53257  0.85789  1
 C  C7  1  0.36754  0.31830  0.94390  1
 C  C8  1  0.23855  0.46582  0.04456  1
 C  C9  1  0.44787  0.55281  0.30184  1
 H  H1  1  0.01011  0.61629  0.48020  1
 H  H2  1  0.81015  0.26879  0.40500  1
 H  H3  1  0.47885  0.14001  0.38510  1
 H  H4  1  0.34315  0.08402  0.94435  1
 H  H5  1  0.66024  0.24509  0.93784  1
 H  H6  1  0.31047  0.79495  0.48806  1
 H  H7  1  0.41487  0.12513  0.57620  1
 H  H8  1  0.93708  0.60493  0.67122  1
 H  H9  1  0.23357  0.79146  0.67287  1
 H  H10  1  0.90494  0.59426  0.86195  1
 H  H11  1  0.21207  0.76978  0.86072  1
 H  H12  1  0.71768  0.30274  0.58097  1
 H  H13  1  0.66850  0.29441  0.76006  1
 H  H14  1  0.36565  0.11492  0.76080  1
 O  O1  1  0.67308  0.46521  0.22840  1
 O  O2  1  0.31068  0.26722  0.11560  1
 O  O3  1  0.14869  0.81173  0.30002  1
 O  O4  1  0.08230  0.78096  0.05314  1
 Zn  Zn1  1  0.03018  0.02537  0.17362  1
