CIF file written using JARVIS-Tools package.
data_NaCaSiO4
_symmetry_space_group_name_H-M  'Cmcm'
_cell_length_a       5.36288
_cell_length_b       5.36287
_cell_length_c       7.14878
_cell_angle_alpha    90
_cell_angle_beta     90
_cell_angle_gamma    116.117

_symmetry_Int_Tables_number  63
_chemical_formula_structural  NaCaSiO4
_chemical_formula_sum  Na2Ca2Si2O8
_cell_volume  184.60998817589896
_cell_formula_units_Z  2
loop_
  _symmetry_equiv_pos_site_id
 _symmetry_equiv_pos_as_xyz
 1  'x, y, z'
loop_
 _atom_site_type_symbol
 _atom_site_label
 _atom_site_symmetry_multiplicity
 _atom_site_fract_x
 _atom_site_fract_y
 _atom_site_fract_z
 _atom_site_fract_occupancy
 Ca  Ca1  1  -0.00008  -0.00008  0.00000  1
 Ca  Ca2  1  0.00008  0.00008  0.50000  1
 Na  Na1  1  0.68455  0.31545  0.75000  1
 Na  Na2  1  0.31545  0.68455  0.25000  1
 O  O1  1  0.69727  0.77650  0.74994  1
 O  O2  1  0.77650  0.69727  0.25006  1
 O  O3  1  0.30273  0.22350  0.24994  1
 O  O4  1  0.22350  0.30273  0.75006  1
 O  O5  1  0.25399  0.74638  0.93897  1
 O  O6  1  0.74638  0.25399  0.06103  1
 O  O7  1  0.74601  0.25362  0.43897  1
 O  O8  1  0.25362  0.74601  0.56103  1
 Si  Si1  1  0.35789  0.64211  0.75000  1
 Si  Si2  1  0.64211  0.35789  0.25000  1
