CIF file written using JARVIS-Tools package.
data_MgCu3Sn4O12
_symmetry_space_group_name_H-M  'Im-3'
_cell_length_a       6.67943
_cell_length_b       6.67943
_cell_length_c       6.67943
_cell_angle_alpha    109.471
_cell_angle_beta     109.471
_cell_angle_gamma    109.471

_symmetry_Int_Tables_number  204
_chemical_formula_structural  MgCu3Sn4O12
_chemical_formula_sum  MgCu3Sn4O2
_cell_volume  229.40161806105482
_cell_formula_units_Z  1
loop_
  _symmetry_equiv_pos_site_id
 _symmetry_equiv_pos_as_xyz
 1  'x, y, z'
loop_
 _atom_site_type_symbol
 _atom_site_label
 _atom_site_symmetry_multiplicity
 _atom_site_fract_x
 _atom_site_fract_y
 _atom_site_fract_z
 _atom_site_fract_occupancy
 Cu  Cu1  1  0.50000  0.00000  0.50000  1
 Cu  Cu2  1  0.50000  0.50000  0.00000  1
 Cu  Cu3  1  0.00000  0.50000  0.50000  1
 Mg  Mg1  1  0.00000  0.00000  0.00000  1
 O  O1  1  0.30528  0.13736  0.83208  1
 O  O2  1  0.16792  0.69472  0.86264  1
 O  O3  1  0.69472  0.52680  0.83208  1
 O  O4  1  0.47320  0.16792  0.30528  1
 O  O5  1  0.69472  0.86264  0.16792  1
 O  O6  1  0.83208  0.30528  0.13736  1
 O  O7  1  0.86264  0.16792  0.69472  1
 O  O8  1  0.30528  0.47320  0.16792  1
 O  O9  1  0.16792  0.30528  0.47320  1
 O  O10  1  0.52680  0.83208  0.69472  1
 O  O11  1  0.83208  0.69472  0.52680  1
 O  O12  1  0.13736  0.83208  0.30528  1
 Sn  Sn1  1  0.00000  0.00000  0.50000  1
 Sn  Sn2  1  0.50000  0.50000  0.50000  1
 Sn  Sn3  1  0.50000  0.00000  -0.00000  1
 Sn  Sn4  1  0.00000  0.50000  0.00000  1
