CIF file written using JARVIS-Tools package.
data_K2MoS2O2
_symmetry_space_group_name_H-M  'C2/c'
_cell_length_a       6.5431
_cell_length_b       6.54309
_cell_length_c       9.551
_cell_angle_alpha    64.552
_cell_angle_beta     64.5521
_cell_angle_gamma    65.0968

_symmetry_Int_Tables_number  15
_chemical_formula_structural  K2MoS2O2
_chemical_formula_sum  K4Mo2S4O4
_cell_volume  319.07449540356646
_cell_formula_units_Z  2
loop_
  _symmetry_equiv_pos_site_id
 _symmetry_equiv_pos_as_xyz
 1  'x, y, z'
loop_
 _atom_site_type_symbol
 _atom_site_label
 _atom_site_symmetry_multiplicity
 _atom_site_fract_x
 _atom_site_fract_y
 _atom_site_fract_z
 _atom_site_fract_occupancy
 K  K1  1  0.76152  0.65498  0.66428  1
 K  K2  1  0.34502  0.23848  0.83572  1
 K  K3  1  0.23848  0.34502  0.33572  1
 K  K4  1  0.65498  0.76152  0.16428  1
 Mo  Mo1  1  0.07425  0.92575  0.75000  1
 Mo  Mo2  1  0.92575  0.07425  0.25000  1
 O  O1  1  0.08793  0.21929  0.67101  1
 O  O2  1  0.78071  0.91207  0.82899  1
 O  O3  1  0.91207  0.78071  0.32899  1
 O  O4  1  0.21929  0.08793  0.17101  1
 S  S1  1  0.24514  0.72071  0.94681  1
 S  S2  1  0.27929  0.75486  0.55319  1
 S  S3  1  0.75486  0.27929  0.05319  1
 S  S4  1  0.72071  0.24514  0.44681  1
