CIF file written using JARVIS-Tools package.
data_LiMo6Se8
_symmetry_space_group_name_H-M  'R-3'
_cell_length_a       6.77913
_cell_length_b       6.77913
_cell_length_c       6.77913
_cell_angle_alpha    91.5139
_cell_angle_beta     91.5138
_cell_angle_gamma    91.5138

_symmetry_Int_Tables_number  148
_chemical_formula_structural  LiMo6Se8
_chemical_formula_sum  LiMo6Se8
_cell_volume  311.2140055948279
_cell_formula_units_Z  1
loop_
  _symmetry_equiv_pos_site_id
 _symmetry_equiv_pos_as_xyz
 1  'x, y, z'
loop_
 _atom_site_type_symbol
 _atom_site_label
 _atom_site_symmetry_multiplicity
 _atom_site_fract_x
 _atom_site_fract_y
 _atom_site_fract_z
 _atom_site_fract_occupancy
 Li  Li1  1  0.00000  0.00000  0.00000  1
 Mo  Mo1  1  0.76728  0.58139  0.44979  1
 Mo  Mo2  1  0.44979  0.76728  0.58139  1
 Mo  Mo3  1  0.58139  0.44979  0.76728  1
 Mo  Mo4  1  0.23272  0.41861  0.55021  1
 Mo  Mo5  1  0.55021  0.23272  0.41861  1
 Mo  Mo6  1  0.41861  0.55021  0.23272  1
 Se  Se1  1  0.77752  0.77752  0.77752  1
 Se  Se2  1  0.22248  0.22248  0.22248  1
 Se  Se3  1  0.25554  0.62380  0.87486  1
 Se  Se4  1  0.87486  0.25554  0.62380  1
 Se  Se5  1  0.62380  0.87486  0.25554  1
 Se  Se6  1  0.74446  0.37620  0.12514  1
 Se  Se7  1  0.12514  0.74446  0.37620  1
 Se  Se8  1  0.37620  0.12514  0.74446  1
