CIF file written using JARVIS-Tools package.
data_ZnH16C10O4
_symmetry_space_group_name_H-M  'P1'
_cell_length_a       3.87971
_cell_length_b       4.71346
_cell_length_c       14.8893
_cell_angle_alpha    87.4079
_cell_angle_beta     78.4847
_cell_angle_gamma    66.8328

_symmetry_Int_Tables_number  1
_chemical_formula_structural  ZnH16C10O4
_chemical_formula_sum  ZnH6C0O4
_cell_volume  245.11693372844184
_cell_formula_units_Z  1
loop_
  _symmetry_equiv_pos_site_id
 _symmetry_equiv_pos_as_xyz
 1  'x, y, z'
loop_
 _atom_site_type_symbol
 _atom_site_label
 _atom_site_symmetry_multiplicity
 _atom_site_fract_x
 _atom_site_fract_y
 _atom_site_fract_z
 _atom_site_fract_occupancy
 C  C1  1  0.40416  0.47593  0.61527  1
 C  C2  1  0.78130  0.74157  0.37669  1
 C  C3  1  0.48619  0.68453  0.53961  1
 C  C4  1  0.71452  0.51560  0.44785  1
 C  C5  1  0.19496  0.65367  0.70672  1
 C  C6  1  0.11398  0.45317  0.78509  1
 C  C7  1  0.93755  0.63489  0.87691  1
 C  C8  1  0.87124  0.43405  0.95655  1
 C  C9  1  0.77112  0.58732  0.05103  1
 C  C10  1  0.03686  0.60730  0.28487  1
 H  H1  1  0.64260  0.80816  0.56339  1
 H  H2  1  0.50917  0.91353  0.36325  1
 H  H3  1  0.91518  0.87834  0.40371  1
 H  H4  1  0.12679  0.74258  0.89163  1
 H  H5  1  0.66629  0.82795  0.87183  1
 H  H6  1  0.99062  0.33897  0.45771  1
 H  H7  1  0.56247  0.39225  0.42232  1
 H  H8  1  0.67620  0.29073  0.62471  1
 H  H9  1  0.23516  0.35940  0.59398  1
 H  H10  1  0.38366  0.25905  0.79148  1
 H  H11  1  0.92540  0.34733  0.76851  1
 H  H12  1  0.12659  0.21993  0.95650  1
 H  H13  1  0.64355  0.35586  0.95065  1
 H  H14  1  0.21274  0.86533  0.52907  1
 H  H15  1  0.92303  0.83926  0.69743  1
 H  H16  1  0.36557  0.77142  0.72665  1
 O  O1  1  0.05188  0.78855  0.21963  1
 O  O2  1  0.65611  0.88214  0.05595  1
 O  O3  1  0.24103  0.31676  0.27855  1
 O  O4  1  0.81638  0.42036  0.12059  1
 Zn  Zn1  1  0.61899  0.10043  0.16928  1
