CIF file written using JARVIS-Tools package.
data_CuPS3
_symmetry_space_group_name_H-M  'P4_2/mnm'
_cell_length_a       5.23245
_cell_length_b       5.23245
_cell_length_c       15.1496
_cell_angle_alpha    90
_cell_angle_beta     90
_cell_angle_gamma    90

_symmetry_Int_Tables_number  136
_chemical_formula_structural  CuPS3
_chemical_formula_sum  Cu4P4S2
_cell_volume  414.7725223570451
_cell_formula_units_Z  4
loop_
  _symmetry_equiv_pos_site_id
 _symmetry_equiv_pos_as_xyz
 1  'x, y, z'
loop_
 _atom_site_type_symbol
 _atom_site_label
 _atom_site_symmetry_multiplicity
 _atom_site_fract_x
 _atom_site_fract_y
 _atom_site_fract_z
 _atom_site_fract_occupancy
 Cu  Cu1  1  0.00000  0.50000  0.25000  1
 Cu  Cu2  1  0.50000  0.00000  0.75000  1
 Cu  Cu3  1  0.00000  0.50000  0.75000  1
 Cu  Cu4  1  0.50000  0.00000  0.25000  1
 P  P1  1  0.50000  0.50000  0.40517  1
 P  P2  1  0.00000  0.00000  0.90517  1
 P  P3  1  0.50000  0.50000  0.59483  1
 P  P4  1  0.00000  0.00000  0.09483  1
 S  S1  1  0.28480  0.71520  0.50000  1
 S  S2  1  0.75868  0.24132  0.16025  1
 S  S3  1  0.21520  0.21520  0.00000  1
 S  S4  1  0.78480  0.78480  0.00000  1
 S  S5  1  0.71520  0.28480  0.50000  1
 S  S6  1  0.74132  0.74132  0.66025  1
 S  S7  1  0.24132  0.75868  0.83975  1
 S  S8  1  0.75868  0.24132  0.83975  1
 S  S9  1  0.25868  0.25868  0.33975  1
 S  S10  1  0.25868  0.25868  0.66025  1
 S  S11  1  0.74132  0.74132  0.33975  1
 S  S12  1  0.24132  0.75868  0.16025  1
