CIF file written using JARVIS-Tools package.
data_AlGeH
_symmetry_space_group_name_H-M  'P6_3mc'
_cell_length_a       3.11181
_cell_length_b       3.11182
_cell_length_c       9.57907
_cell_angle_alpha    90
_cell_angle_beta     90
_cell_angle_gamma    120

_symmetry_Int_Tables_number  186
_chemical_formula_structural  AlGeH
_chemical_formula_sum  Al2Ge2H2
_cell_volume  80.33068177484299
_cell_formula_units_Z  2
loop_
  _symmetry_equiv_pos_site_id
 _symmetry_equiv_pos_as_xyz
 1  'x, y, z'
loop_
 _atom_site_type_symbol
 _atom_site_label
 _atom_site_symmetry_multiplicity
 _atom_site_fract_x
 _atom_site_fract_y
 _atom_site_fract_z
 _atom_site_fract_occupancy
 Al  Al1  1  0.66667  0.33333  0.14293  1
 Al  Al2  1  0.33333  0.66667  0.64293  1
 Ge  Ge1  1  0.33333  0.66667  0.92336  1
 Ge  Ge2  1  0.66667  0.33333  0.42336  1
 H  H1  1  0.00000  0.00000  0.18371  1
 H  H2  1  0.00000  0.00000  0.68371  1
