CIF file written using JARVIS-Tools package.
data_URuS3
_symmetry_space_group_name_H-M  'Pnma'
_cell_length_a       5.94673
_cell_length_b       6.95993
_cell_length_c       8.71107
_cell_angle_alpha    90
_cell_angle_beta     90
_cell_angle_gamma    90

_symmetry_Int_Tables_number  62
_chemical_formula_structural  URuS3
_chemical_formula_sum  U4Ru4S2
_cell_volume  360.54062146170753
_cell_formula_units_Z  4
loop_
  _symmetry_equiv_pos_site_id
 _symmetry_equiv_pos_as_xyz
 1  'x, y, z'
loop_
 _atom_site_type_symbol
 _atom_site_label
 _atom_site_symmetry_multiplicity
 _atom_site_fract_x
 _atom_site_fract_y
 _atom_site_fract_z
 _atom_site_fract_occupancy
 Ru  Ru1  1  0.50000  0.50000  0.00000  1
 Ru  Ru2  1  0.00000  0.00000  0.50000  1
 Ru  Ru3  1  0.50000  0.50000  0.50000  1
 Ru  Ru4  1  0.00000  0.00000  0.00000  1
 S  S1  1  0.34928  0.18177  0.44288  1
 S  S2  1  0.66027  0.55075  0.25000  1
 S  S3  1  0.65072  0.81823  0.94288  1
 S  S4  1  0.33973  0.44925  0.75000  1
 S  S5  1  0.16027  0.94925  0.75000  1
 S  S6  1  0.83973  0.05075  0.25000  1
 S  S7  1  0.84928  0.31823  0.94288  1
 S  S8  1  0.84928  0.31823  0.55712  1
 S  S9  1  0.15072  0.68177  0.44288  1
 S  S10  1  0.65072  0.81823  0.55712  1
 S  S11  1  0.15072  0.68177  0.05712  1
 S  S12  1  0.34928  0.18177  0.05712  1
 U  U1  1  0.93068  0.62238  0.75000  1
 U  U2  1  0.56932  0.12238  0.75000  1
 U  U3  1  0.06932  0.37762  0.25000  1
 U  U4  1  0.43068  0.87762  0.25000  1
