CIF file written using JARVIS-Tools package.
data_ZnH16C10O4
_symmetry_space_group_name_H-M  'P1'
_cell_length_a       4.07067
_cell_length_b       4.50646
_cell_length_c       14.5737
_cell_angle_alpha    83.7679
_cell_angle_beta     85.7236
_cell_angle_gamma    71.6856

_symmetry_Int_Tables_number  1
_chemical_formula_structural  ZnH16C10O4
_chemical_formula_sum  ZnH6C0O4
_cell_volume  252.07066327404385
_cell_formula_units_Z  1
loop_
  _symmetry_equiv_pos_site_id
 _symmetry_equiv_pos_as_xyz
 1  'x, y, z'
loop_
 _atom_site_type_symbol
 _atom_site_label
 _atom_site_symmetry_multiplicity
 _atom_site_fract_x
 _atom_site_fract_y
 _atom_site_fract_z
 _atom_site_fract_occupancy
 C  C1  1  0.07001  0.47201  0.37867  1
 C  C2  1  0.70520  0.61551  0.63203  1
 C  C3  1  0.90788  0.65441  0.46199  1
 C  C4  1  0.87106  0.43840  0.54805  1
 C  C5  1  0.13455  0.67819  0.29308  1
 C  C6  1  0.31009  0.48900  0.21205  1
 C  C7  1  0.37756  0.69202  0.12606  1
 C  C8  1  0.58424  0.49560  0.04938  1
 C  C9  1  0.65872  0.69111  0.96415  1
 C  C10  1  0.72878  0.41179  0.72291  1
 H  H1  1  0.65236  0.82139  0.44446  1
 H  H2  1  0.83593  0.78919  0.64269  1
 H  H3  1  0.43191  0.75099  0.62227  1
 H  H4  1  0.13055  0.84739  0.09915  1
 H  H5  1  0.51965  0.84644  0.14523  1
 H  H6  1  0.71681  0.28933  0.53260  1
 H  H7  1  0.12882  0.27818  0.56563  1
 H  H8  1  0.90299  0.33678  0.36134  1
 H  H9  1  0.31856  0.29686  0.39829  1
 H  H10  1  0.15067  0.34743  0.19436  1
 H  H11  1  0.55825  0.31952  0.23433  1
 H  H12  1  0.43746  0.35193  0.02589  1
 H  H13  1  0.83188  0.33515  0.07389  1
 H  H14  1  0.06898  0.79776  0.47737  1
 H  H15  1  0.29652  0.81734  0.31100  1
 H  H16  1  0.88634  0.84931  0.27159  1
 O  O1  1  0.51314  0.49598  0.78893  1
 O  O2  1  0.42498  0.93944  0.93373  1
 O  O3  1  0.98622  0.15523  0.72863  1
 O  O4  1  0.95914  0.59655  0.92527  1
 Zn  Zn1  1  0.13812  0.87551  0.83751  1
