CIF file written using JARVIS-Tools package.
data_AlGeO
_symmetry_space_group_name_H-M  'Pm'
_cell_length_a       7.27229
_cell_length_b       6.11424
_cell_length_c       2.9484
_cell_angle_alpha    90
_cell_angle_beta     90
_cell_angle_gamma    157.174

_symmetry_Int_Tables_number  6
_chemical_formula_structural  AlGeO
_chemical_formula_sum  AlGeO
_cell_volume  50.85871032420764
_cell_formula_units_Z  1
loop_
  _symmetry_equiv_pos_site_id
 _symmetry_equiv_pos_as_xyz
 1  'x, y, z'
loop_
 _atom_site_type_symbol
 _atom_site_label
 _atom_site_symmetry_multiplicity
 _atom_site_fract_x
 _atom_site_fract_y
 _atom_site_fract_z
 _atom_site_fract_occupancy
 Al  Al1  1  0.22094  -0.02046  0.00000  1
 Ge  Ge1  1  -0.01355  0.30437  0.00000  1
 O  O1  1  0.79261  0.71609  0.00000  1
