CIF file written using JARVIS-Tools package.
data_MgFe10N8
_symmetry_space_group_name_H-M  'C2/m'
_cell_length_a       8.63082
_cell_length_b       3.17262
_cell_length_c       7.66392
_cell_angle_alpha    90
_cell_angle_beta     66.2281
_cell_angle_gamma    79.4091

_symmetry_Int_Tables_number  12
_chemical_formula_structural  MgFe10N8
_chemical_formula_sum  MgFe0N8
_cell_volume  188.13802803952467
_cell_formula_units_Z  1
loop_
  _symmetry_equiv_pos_site_id
 _symmetry_equiv_pos_as_xyz
 1  'x, y, z'
loop_
 _atom_site_type_symbol
 _atom_site_label
 _atom_site_symmetry_multiplicity
 _atom_site_fract_x
 _atom_site_fract_y
 _atom_site_fract_z
 _atom_site_fract_occupancy
 Fe  Fe1  1  0.45650  0.77175  0.81262  1
 Fe  Fe2  1  0.30409  0.84795  0.20121  1
 Fe  Fe3  1  0.19473  0.40264  0.89508  1
 Fe  Fe4  1  0.80527  0.59736  0.10492  1
 Fe  Fe5  1  0.34362  0.32819  0.52982  1
 Fe  Fe6  1  0.69591  0.15205  0.79879  1
 Fe  Fe7  1  0.00712  0.99644  0.17443  1
 Fe  Fe8  1  0.99288  0.00356  0.82557  1
 Fe  Fe9  1  0.54350  0.22825  0.18738  1
 Fe  Fe10  1  0.65638  0.67181  0.47018  1
 Mg  Mg1  1  -0.00000  0.50000  0.50000  1
 N  N1  1  0.09901  0.45049  0.71803  1
 N  N2  1  0.23333  0.88333  0.00669  1
 N  N3  1  0.76667  0.11667  0.99331  1
 N  N4  1  0.40737  0.79631  0.61122  1
 N  N5  1  0.59263  0.20369  0.38878  1
 N  N6  1  0.70095  0.64953  0.69120  1
 N  N7  1  0.29905  0.35047  0.30880  1
 N  N8  1  0.90099  0.54951  0.28197  1
