CIF file written using JARVIS-Tools package.
data_ZnCrN2
_symmetry_space_group_name_H-M  'Pna2_1'
_cell_length_a       5.52922
_cell_length_b       6.3546
_cell_length_c       5.21294
_cell_angle_alpha    90
_cell_angle_beta     90
_cell_angle_gamma    90

_symmetry_Int_Tables_number  33
_chemical_formula_structural  ZnCrN2
_chemical_formula_sum  Zn4Cr4N8
_cell_volume  183.16177231046836
_cell_formula_units_Z  4
loop_
  _symmetry_equiv_pos_site_id
 _symmetry_equiv_pos_as_xyz
 1  'x, y, z'
loop_
 _atom_site_type_symbol
 _atom_site_label
 _atom_site_symmetry_multiplicity
 _atom_site_fract_x
 _atom_site_fract_y
 _atom_site_fract_z
 _atom_site_fract_occupancy
 Cr  Cr1  1  0.57518  0.37331  0.99845  1
 Cr  Cr2  1  0.42482  0.62669  0.49845  1
 Cr  Cr3  1  0.92482  0.87331  0.49845  1
 Cr  Cr4  1  0.07518  0.12669  0.99845  1
 N  N1  1  0.56620  0.38922  0.35564  1
 N  N2  1  0.43380  0.61078  0.85564  1
 N  N3  1  0.93380  0.88922  0.85564  1
 N  N4  1  0.06620  0.11078  0.35564  1
 N  N5  1  0.60231  0.86013  0.39459  1
 N  N6  1  0.39769  0.13987  0.89459  1
 N  N7  1  0.89769  0.36013  0.89459  1
 N  N8  1  0.10231  0.63987  0.39459  1
 Zn  Zn1  1  0.58875  0.87798  0.00132  1
 Zn  Zn2  1  0.41125  0.12202  0.50132  1
 Zn  Zn3  1  0.91125  0.37798  0.50132  1
 Zn  Zn4  1  0.08875  0.62202  0.00132  1
