CIF file written using JARVIS-Tools package.
data_Mn7CdO12
_symmetry_space_group_name_H-M  'Im-3'
_cell_length_a       6.39748
_cell_length_b       6.39698
_cell_length_c       6.39715
_cell_angle_alpha    109.484
_cell_angle_beta     109.439
_cell_angle_gamma    109.493

_symmetry_Int_Tables_number  204
_chemical_formula_structural  Mn7CdO12
_chemical_formula_sum  Mn7CdO2
_cell_volume  201.52741183520854
_cell_formula_units_Z  1
loop_
  _symmetry_equiv_pos_site_id
 _symmetry_equiv_pos_as_xyz
 1  'x, y, z'
loop_
 _atom_site_type_symbol
 _atom_site_label
 _atom_site_symmetry_multiplicity
 _atom_site_fract_x
 _atom_site_fract_y
 _atom_site_fract_z
 _atom_site_fract_occupancy
 Cd  Cd1  1  0.00000  0.00000  0.00000  1
 Mn  Mn1  1  0.50000  -0.00000  0.50000  1
 Mn  Mn2  1  0.00000  0.50000  0.50000  1
 Mn  Mn3  1  0.50000  0.50000  0.00000  1
 Mn  Mn4  1  -0.00000  0.00000  0.50000  1
 Mn  Mn5  1  0.50000  0.50000  0.50000  1
 Mn  Mn6  1  0.00000  0.50000  -0.00000  1
 Mn  Mn7  1  0.50000  -0.00000  0.00000  1
 O  O1  1  0.13100  0.82121  0.30979  1
 O  O2  1  0.17877  0.69031  0.86901  1
 O  O3  1  0.30968  0.48846  0.17876  1
 O  O4  1  0.86899  0.17879  0.69021  1
 O  O5  1  0.82126  0.69027  0.51154  1
 O  O6  1  0.69035  0.86912  0.17878  1
 O  O7  1  0.51146  0.82120  0.69021  1
 O  O8  1  0.82123  0.30969  0.13099  1
 O  O9  1  0.17874  0.30973  0.48846  1
 O  O10  1  0.48854  0.17880  0.30979  1
 O  O11  1  0.69032  0.51154  0.82124  1
 O  O12  1  0.30965  0.13088  0.82122  1
