CIF file written using JARVIS-Tools package.
data_In2I
_symmetry_space_group_name_H-M  'Pm'
_cell_length_a       6.73191
_cell_length_b       3.74295
_cell_length_c       5.93318
_cell_angle_alpha    90
_cell_angle_beta     64.0101
_cell_angle_gamma    90

_symmetry_Int_Tables_number  6
_chemical_formula_structural  In2I
_chemical_formula_sum  In2I
_cell_volume  134.38105818405495
_cell_formula_units_Z  1
loop_
  _symmetry_equiv_pos_site_id
 _symmetry_equiv_pos_as_xyz
 1  'x, y, z'
loop_
 _atom_site_type_symbol
 _atom_site_label
 _atom_site_symmetry_multiplicity
 _atom_site_fract_x
 _atom_site_fract_y
 _atom_site_fract_z
 _atom_site_fract_occupancy
 I  I1  1  0.46645  0.00000  0.01778  1
 In  In1  1  -0.05685  0.00000  -0.04713  1
 In  In2  1  -0.00960  0.00000  0.42935  1
