CIF file written using JARVIS-Tools package.
data_Ga2FeN3
_symmetry_space_group_name_H-M  'Cmc2_1'
_cell_length_a       5.58143
_cell_length_b       5.57514
_cell_length_c       5.23
_cell_angle_alpha    90
_cell_angle_beta     90
_cell_angle_gamma    119.963

_symmetry_Int_Tables_number  36
_chemical_formula_structural  Ga2FeN3
_chemical_formula_sum  Ga4Fe2N6
_cell_volume  140.99249392364413
_cell_formula_units_Z  2
loop_
  _symmetry_equiv_pos_site_id
 _symmetry_equiv_pos_as_xyz
 1  'x, y, z'
loop_
 _atom_site_type_symbol
 _atom_site_label
 _atom_site_symmetry_multiplicity
 _atom_site_fract_x
 _atom_site_fract_y
 _atom_site_fract_z
 _atom_site_fract_occupancy
 Fe  Fe1  1  -0.00000  0.66380  0.49091  1
 Fe  Fe2  1  0.00000  0.33620  0.99091  1
 Ga  Ga1  1  0.33328  0.33160  0.49383  1
 Ga  Ga2  1  0.66672  0.99833  0.49383  1
 Ga  Ga3  1  0.66672  0.66840  0.99383  1
 Ga  Ga4  1  0.33328  0.00167  0.99383  1
 N  N1  1  0.33480  0.33546  0.87044  1
 N  N2  1  0.66520  0.00066  0.87044  1
 N  N3  1  0.66520  0.66454  0.37044  1
 N  N4  1  0.33480  0.99934  0.37044  1
 N  N5  1  0.00000  0.67225  0.86856  1
 N  N6  1  -0.00000  0.32775  0.36856  1
