CIF file written using JARVIS-Tools package.
data_ZnH16C10O4
_symmetry_space_group_name_H-M  'P1'
_cell_length_a       3.88199
_cell_length_b       4.78501
_cell_length_c       15.0303
_cell_angle_alpha    78.2747
_cell_angle_beta     93.0521
_cell_angle_gamma    65.1773

_symmetry_Int_Tables_number  1
_chemical_formula_structural  ZnH16C10O4
_chemical_formula_sum  ZnH6C0O4
_cell_volume  245.07787071863146
_cell_formula_units_Z  1
loop_
  _symmetry_equiv_pos_site_id
 _symmetry_equiv_pos_as_xyz
 1  'x, y, z'
loop_
 _atom_site_type_symbol
 _atom_site_label
 _atom_site_symmetry_multiplicity
 _atom_site_fract_x
 _atom_site_fract_y
 _atom_site_fract_z
 _atom_site_fract_occupancy
 C  C1  1  0.89300  0.14203  0.37943  1
 C  C2  1  0.43562  0.67353  0.62889  1
 C  C3  1  0.17228  0.86333  0.45734  1
 C  C4  1  0.17121  0.95319  0.54944  1
 C  C5  1  0.85863  0.05702  0.28761  1
 C  C6  1  0.57074  0.34136  0.21246  1
 C  C7  1  0.50940  0.26562  0.12037  1
 C  C8  1  0.21982  0.56268  0.04971  1
 C  C9  1  0.09499  0.52106  0.95799  1
 C  C10  1  0.38348  0.73299  0.72384  1
 H  H1  1  0.46488  0.77316  0.43956  1
 H  H2  1  0.39159  0.46041  0.62926  1
 H  H3  1  0.74062  0.60060  0.62216  1
 H  H4  1  0.78322  0.16788  0.09393  1
 H  H5  1  0.40741  0.08035  0.13044  1
 H  H6  1  0.25294  0.14976  0.54368  1
 H  H7  1  0.87603  0.04738  0.56529  1
 H  H8  1  0.98176  0.33584  0.36977  1
 H  H9  1  0.60638  0.23988  0.40040  1
 H  H10  1  0.66571  0.53163  0.20172  1
 H  H11  1  0.29224  0.44102  0.23717  1
 H  H12  1  0.32329  0.74632  0.03559  1
 H  H13  1  0.95166  0.67341  0.07782  1
 H  H14  1  0.09323  0.66436  0.46436  1
 H  H15  1  0.76918  0.86360  0.29735  1
 H  H16  1  0.14249  0.96163  0.26533  1
 O  O1  1  0.50519  0.49759  0.79364  1
 O  O2  1  0.17947  0.23772  0.95144  1
 O  O3  1  0.20413  0.02221  0.72882  1
 O  O4  1  -0.10182  0.76708  0.89317  1
 Zn  Zn1  1  0.01813  0.13021  0.84226  1
