CIF file written using JARVIS-Tools package.
data_PbCO3
_symmetry_space_group_name_H-M  'Pnma'
_cell_length_a       8.54542
_cell_length_b       5.22394
_cell_length_c       6.08124
_cell_angle_alpha    90.0032
_cell_angle_beta     90
_cell_angle_gamma    90

_symmetry_Int_Tables_number  62
_chemical_formula_structural  PbCO3
_chemical_formula_sum  Pb4C4O2
_cell_volume  271.47151614788066
_cell_formula_units_Z  4
loop_
  _symmetry_equiv_pos_site_id
 _symmetry_equiv_pos_as_xyz
 1  'x, y, z'
loop_
 _atom_site_type_symbol
 _atom_site_label
 _atom_site_symmetry_multiplicity
 _atom_site_fract_x
 _atom_site_fract_y
 _atom_site_fract_z
 _atom_site_fract_occupancy
 C  C1  1  0.76216  0.24998  0.09000  1
 C  C2  1  0.26216  0.75002  0.41000  1
 C  C3  1  0.23784  0.75002  0.91000  1
 C  C4  1  0.73784  0.24998  0.59000  1
 O  O1  1  0.68563  0.03438  0.09166  1
 O  O2  1  0.91421  0.24999  0.10065  1
 O  O3  1  0.31437  0.96562  0.90834  1
 O  O4  1  0.08579  0.75001  0.89935  1
 O  O5  1  0.58579  0.24999  0.60065  1
 O  O6  1  0.41421  0.75001  0.39935  1
 O  O7  1  0.18561  0.53443  0.40829  1
 O  O8  1  0.81437  0.03438  0.59166  1
 O  O9  1  0.81439  0.46557  0.59171  1
 O  O10  1  0.68561  0.46557  0.09171  1
 O  O11  1  0.18563  0.96562  0.40834  1
 O  O12  1  0.31439  0.53443  0.90829  1
 Pb  Pb1  1  0.08301  0.25004  0.74449  1
 Pb  Pb2  1  0.58301  0.74996  0.75551  1
 Pb  Pb3  1  0.91699  0.74996  0.25551  1
 Pb  Pb4  1  0.41699  0.25004  0.24449  1
