CIF file written using JARVIS-Tools package.
data_Zr2CuH5
_symmetry_space_group_name_H-M  'C2/m'
_cell_length_a       5.73066
_cell_length_b       5.73065
_cell_length_c       8.31804
_cell_angle_alpha    58.4313
_cell_angle_beta     58.4313
_cell_angle_gamma    37.0739

_symmetry_Int_Tables_number  12
_chemical_formula_structural  Zr2CuH5
_chemical_formula_sum  Zr4Cu2H0
_cell_volume  137.29714416470793
_cell_formula_units_Z  2
loop_
  _symmetry_equiv_pos_site_id
 _symmetry_equiv_pos_as_xyz
 1  'x, y, z'
loop_
 _atom_site_type_symbol
 _atom_site_label
 _atom_site_symmetry_multiplicity
 _atom_site_fract_x
 _atom_site_fract_y
 _atom_site_fract_z
 _atom_site_fract_occupancy
 Cu  Cu1  1  0.62204  0.62204  0.84863  1
 Cu  Cu2  1  0.37796  0.37796  0.15137  1
 H  H1  1  0.86343  0.86343  0.42519  1
 H  H2  1  0.13657  0.13657  0.57481  1
 H  H3  1  0.53466  0.53466  0.32949  1
 H  H4  1  0.46534  0.46534  0.67051  1
 H  H5  1  0.68508  0.68508  0.02224  1
 H  H6  1  0.31492  0.31492  0.97776  1
 H  H7  1  0.81700  0.81700  0.70334  1
 H  H8  1  0.18300  0.18300  0.29666  1
 H  H9  1  0.11927  0.11927  0.86028  1
 H  H10  1  0.88073  0.88073  0.13972  1
 Zr  Zr1  1  0.91960  0.91960  0.84354  1
 Zr  Zr2  1  0.08040  0.08040  0.15646  1
 Zr  Zr3  1  0.32639  0.32639  0.57483  1
 Zr  Zr4  1  0.67361  0.67361  0.42517  1
