CIF file written using JARVIS-Tools package.
data_ZnH16C10O4
_symmetry_space_group_name_H-M  'P1'
_cell_length_a       3.88193
_cell_length_b       4.72677
_cell_length_c       14.8393
_cell_angle_alpha    87.7273
_cell_angle_beta     101.125
_cell_angle_gamma    113.313

_symmetry_Int_Tables_number  1
_chemical_formula_structural  ZnH16C10O4
_chemical_formula_sum  ZnH6C0O4
_cell_volume  245.15378873648282
_cell_formula_units_Z  1
loop_
  _symmetry_equiv_pos_site_id
 _symmetry_equiv_pos_as_xyz
 1  'x, y, z'
loop_
 _atom_site_type_symbol
 _atom_site_label
 _atom_site_symmetry_multiplicity
 _atom_site_fract_x
 _atom_site_fract_y
 _atom_site_fract_z
 _atom_site_fract_occupancy
 C  C1  1  0.41008  0.54218  0.38588  1
 C  C2  1  0.78313  0.27495  0.62393  1
 C  C3  1  0.48966  0.33319  0.46117  1
 C  C4  1  0.71914  0.50130  0.55317  1
 C  C5  1  0.19918  0.36504  0.29415  1
 C  C6  1  0.12012  0.56561  0.21608  1
 C  C7  1  0.94097  0.38369  0.12403  1
 C  C8  1  0.87634  0.58391  0.04449  1
 C  C9  1  0.77549  0.42989  0.94968  1
 C  C10  1  0.04128  0.40842  0.71566  1
 H  H1  1  0.64406  0.20890  0.43669  1
 H  H2  1  0.51026  0.10505  0.63791  1
 H  H3  1  0.91300  0.13636  0.59607  1
 H  H4  1  0.12760  0.27462  0.10861  1
 H  H5  1  0.66877  0.19207  0.12949  1
 H  H6  1  -0.00383  0.67668  0.54314  1
 H  H7  1  0.56928  0.62541  0.57939  1
 H  H8  1  0.68298  0.72625  0.37624  1
 H  H9  1  0.24324  0.65954  0.40787  1
 H  H10  1  0.39080  0.75832  0.20933  1
 H  H11  1  0.93407  0.67270  0.23342  1
 H  H12  1  0.13265  0.79727  0.04436  1
 H  H13  1  0.64992  0.66275  0.05082  1
 H  H14  1  0.21536  0.15345  0.47187  1
 H  H15  1  0.92646  0.18055  0.30369  1
 H  H16  1  0.36765  0.24646  0.27351  1
 O  O1  1  0.05713  0.22714  0.78054  1
 O  O2  1  0.66096  0.13560  0.94473  1
 O  O3  1  0.24652  0.69845  0.72217  1
 O  O4  1  0.82001  0.59587  0.87997  1
 Zn  Zn1  1  0.62520  0.91497  0.83136  1
