CIF file written using JARVIS-Tools package.
data_InI2
_symmetry_space_group_name_H-M  'Pmm2'
_cell_length_a       6.56673
_cell_length_b       4.74568
_cell_length_c       5.78435
_cell_angle_alpha    90.0001
_cell_angle_beta     90.0001
_cell_angle_gamma    136.271

_symmetry_Int_Tables_number  25
_chemical_formula_structural  InI2
_chemical_formula_sum  InI2
_cell_volume  124.60502963541488
_cell_formula_units_Z  1
loop_
  _symmetry_equiv_pos_site_id
 _symmetry_equiv_pos_as_xyz
 1  'x, y, z'
loop_
 _atom_site_type_symbol
 _atom_site_label
 _atom_site_symmetry_multiplicity
 _atom_site_fract_x
 _atom_site_fract_y
 _atom_site_fract_z
 _atom_site_fract_occupancy
 I  I1  1  0.02762  0.20471  0.49555  1
 I  I2  1  0.52715  0.15137  0.99560  1
 In  In1  1  0.02688  0.08101  0.99553  1
