CIF file written using JARVIS-Tools package.
data_In2I
_symmetry_space_group_name_H-M  'P-1'
_cell_length_a       6.94838
_cell_length_b       4.22084
_cell_length_c       5.15733
_cell_angle_alpha    90.1665
_cell_angle_beta     126.369
_cell_angle_gamma    72.5499

_symmetry_Int_Tables_number  2
_chemical_formula_structural  In2I
_chemical_formula_sum  In2I
_cell_volume  113.13555043225429
_cell_formula_units_Z  1
loop_
  _symmetry_equiv_pos_site_id
 _symmetry_equiv_pos_as_xyz
 1  'x, y, z'
loop_
 _atom_site_type_symbol
 _atom_site_label
 _atom_site_symmetry_multiplicity
 _atom_site_fract_x
 _atom_site_fract_y
 _atom_site_fract_z
 _atom_site_fract_occupancy
 I  I1  1  0.31713  -0.05213  0.28751  1
 In  In1  1  0.03819  0.59005  0.50544  1
 In  In2  1  0.59573  0.30596  0.06916  1
