CIF file written using JARVIS-Tools package.
data_InI
_symmetry_space_group_name_H-M  'Fm-3m'
_cell_length_a       4.9204
_cell_length_b       4.9204
_cell_length_c       6.95681
_cell_angle_alpha    90
_cell_angle_beta     90
_cell_angle_gamma    90

_symmetry_Int_Tables_number  225
_chemical_formula_structural  InI
_chemical_formula_sum  In2I2
_cell_volume  168.42707392045918
_cell_formula_units_Z  2
loop_
  _symmetry_equiv_pos_site_id
 _symmetry_equiv_pos_as_xyz
 1  'x, y, z'
loop_
 _atom_site_type_symbol
 _atom_site_label
 _atom_site_symmetry_multiplicity
 _atom_site_fract_x
 _atom_site_fract_y
 _atom_site_fract_z
 _atom_site_fract_occupancy
 I  I1  1  0.00000  0.00000  0.74982  1
 I  I2  1  0.50000  0.50000  0.25018  1
 In  In1  1  0.00000  0.00000  0.24986  1
 In  In2  1  0.50000  0.50000  0.75014  1
