CIF file written using JARVIS-Tools package.
data_Sr4SnN4
_symmetry_space_group_name_H-M  'P-1'
_cell_length_a       6.43905
_cell_length_b       6.49513
_cell_length_c       9.5864
_cell_angle_alpha    71.204
_cell_angle_beta     79.0195
_cell_angle_gamma    67.9786

_symmetry_Int_Tables_number  2
_chemical_formula_structural  Sr4SnN4
_chemical_formula_sum  Sr8Sn2N8
_cell_volume  350.7457847754565
_cell_formula_units_Z  2
loop_
  _symmetry_equiv_pos_site_id
 _symmetry_equiv_pos_as_xyz
 1  'x, y, z'
loop_
 _atom_site_type_symbol
 _atom_site_label
 _atom_site_symmetry_multiplicity
 _atom_site_fract_x
 _atom_site_fract_y
 _atom_site_fract_z
 _atom_site_fract_occupancy
 N  N1  1  0.50327  0.18109  0.63345  1
 N  N2  1  0.48776  0.37140  0.19406  1
 N  N3  1  0.51224  0.62860  0.80594  1
 N  N4  1  0.10243  0.16816  0.07591  1
 N  N5  1  0.89757  0.83184  0.92409  1
 N  N6  1  0.02014  0.29942  0.39263  1
 N  N7  1  0.97986  0.70058  0.60737  1
 N  N8  1  0.49673  0.81891  0.36655  1
 Sn  Sn1  1  0.71381  0.84933  0.75646  1
 Sn  Sn2  1  0.28619  0.15067  0.24354  1
 Sr  Sr1  1  0.22873  0.95760  0.60927  1
 Sr  Sr2  1  0.27217  0.51230  0.43014  1
 Sr  Sr3  1  0.72783  0.48770  0.56986  1
 Sr  Sr4  1  0.25977  0.76989  0.02041  1
 Sr  Sr5  1  0.74023  0.23011  0.97959  1
 Sr  Sr6  1  0.22666  0.42370  0.82460  1
 Sr  Sr7  1  0.77127  0.04240  0.39073  1
 Sr  Sr8  1  0.77334  0.57630  0.17540  1
