CIF file written using JARVIS-Tools package.
data_Sc3As2
_symmetry_space_group_name_H-M  'P4/m'
_cell_length_a       10.349
_cell_length_b       10.349
_cell_length_c       3.85892
_cell_angle_alpha    90
_cell_angle_beta     90
_cell_angle_gamma    90

_symmetry_Int_Tables_number  83
_chemical_formula_structural  Sc3As2
_chemical_formula_sum  Sc2As8
_cell_volume  413.2962229279911
_cell_formula_units_Z  4
loop_
  _symmetry_equiv_pos_site_id
 _symmetry_equiv_pos_as_xyz
 1  'x, y, z'
loop_
 _atom_site_type_symbol
 _atom_site_label
 _atom_site_symmetry_multiplicity
 _atom_site_fract_x
 _atom_site_fract_y
 _atom_site_fract_z
 _atom_site_fract_occupancy
 As  As1  1  0.95312  0.72219  0.00000  1
 As  As2  1  0.27781  0.95312  0.00000  1
 As  As3  1  0.58177  0.74695  0.50000  1
 As  As4  1  0.41823  0.25305  0.50000  1
 As  As5  1  0.74695  0.41823  0.50000  1
 As  As6  1  0.25305  0.58177  0.50000  1
 As  As7  1  0.04688  0.27781  0.00000  1
 As  As8  1  0.72219  0.04688  0.00000  1
 Sc  Sc1  1  0.60472  0.28181  0.00000  1
 Sc  Sc2  1  0.86297  0.19018  0.50000  1
 Sc  Sc3  1  0.13703  0.80982  0.50000  1
 Sc  Sc4  1  0.39528  0.71819  0.00000  1
 Sc  Sc5  1  0.50000  0.00000  0.50000  1
 Sc  Sc6  1  0.28181  0.39528  0.00000  1
 Sc  Sc7  1  0.71819  0.60472  0.00000  1
 Sc  Sc8  1  0.00000  0.50000  0.50000  1
 Sc  Sc9  1  0.50000  0.50000  0.50000  1
 Sc  Sc10  1  0.00000  0.00000  0.00000  1
 Sc  Sc11  1  0.80982  0.86297  0.50000  1
 Sc  Sc12  1  0.19018  0.13703  0.50000  1
