CIF file written using JARVIS-Tools package.
data_ZnH18C11O4
_symmetry_space_group_name_H-M  'P1'
_cell_length_a       4.06695
_cell_length_b       4.50986
_cell_length_c       16.1695
_cell_angle_alpha    87.1462
_cell_angle_beta     92.5908
_cell_angle_gamma    68.8157

_symmetry_Int_Tables_number  1
_chemical_formula_structural  ZnH18C11O4
_chemical_formula_sum  ZnH8CO4
_cell_volume  275.54941106702535
_cell_formula_units_Z  1
loop_
  _symmetry_equiv_pos_site_id
 _symmetry_equiv_pos_as_xyz
 1  'x, y, z'
loop_
 _atom_site_type_symbol
 _atom_site_label
 _atom_site_symmetry_multiplicity
 _atom_site_fract_x
 _atom_site_fract_y
 _atom_site_fract_z
 _atom_site_fract_occupancy
 C  C1  1  0.39526  0.43982  0.65683  1
 C  C2  1  0.44724  0.50852  0.34247  1
 C  C3  1  0.41611  0.47971  0.49932  1
 C  C4  1  0.39124  0.65085  0.57945  1
 C  C5  1  0.41444  0.68885  0.42175  1
 C  C6  1  0.36724  0.60853  0.73744  1
 C  C7  1  0.37021  0.39393  0.81399  1
 C  C8  1  0.32918  0.56137  0.89501  1
 C  C9  1  0.33846  0.33428  0.96952  1
 C  C10  1  0.27408  0.48652  0.05145  1
 C  C11  1  0.45377  0.71629  0.26671  1
 H  H1  1  0.16919  0.90158  0.41552  1
 H  H2  1  0.22081  0.43310  0.33257  1
 H  H3  1  0.17636  0.35099  0.64986  1
 H  H4  1  0.69067  0.29534  0.34702  1
 H  H5  1  0.61870  0.18328  0.81903  1
 H  H6  1  0.12844  0.23595  0.95970  1
 H  H7  1  0.58855  0.12934  0.97596  1
 H  H8  1  0.54136  0.65677  0.90448  1
 H  H9  1  0.19542  0.39310  0.49256  1
 H  H10  1  0.14717  0.86568  0.57505  1
 H  H11  1  0.61153  0.73806  0.58597  1
 H  H12  1  0.12183  0.82202  0.73306  1
 H  H13  1  0.58587  0.69738  0.74489  1
 H  H14  1  0.07842  0.76787  0.89082  1
 H  H15  1  0.63363  0.77717  0.42870  1
 H  H16  1  0.65965  0.26433  0.50401  1
 H  H17  1  0.15615  0.29990  0.80531  1
 H  H18  1  0.64025  0.22570  0.66131  1
 O  O1  1  0.73878  0.63702  0.22966  1
 O  O2  1  0.44364  0.34303  0.11857  1
 O  O3  1  0.18302  0.96681  0.24442  1
 O  O4  1  0.02950  0.76360  0.05088  1
 Zn  Zn1  1  0.83976  -0.05177  0.15597  1
