CIF file written using JARVIS-Tools package.
data_InI3
_symmetry_space_group_name_H-M  'P-6m2'
_cell_length_a       6.12068
_cell_length_b       6.12068
_cell_length_c       6.03762
_cell_angle_alpha    90
_cell_angle_beta     90
_cell_angle_gamma    120

_symmetry_Int_Tables_number  187
_chemical_formula_structural  InI3
_chemical_formula_sum  InI3
_cell_volume  195.8823964821334
_cell_formula_units_Z  1
loop_
  _symmetry_equiv_pos_site_id
 _symmetry_equiv_pos_as_xyz
 1  'x, y, z'
loop_
 _atom_site_type_symbol
 _atom_site_label
 _atom_site_symmetry_multiplicity
 _atom_site_fract_x
 _atom_site_fract_y
 _atom_site_fract_z
 _atom_site_fract_occupancy
 I  I1  1  0.33333  0.66667  0.74565  1
 I  I2  1  0.00000  0.00000  0.00000  1
 I  I3  1  0.33333  0.66667  0.25435  1
 In  In1  1  0.66667  0.33333  0.00000  1
