CIF file written using JARVIS-Tools package.
data_LuCuS2
_symmetry_space_group_name_H-M  'Pnma'
_cell_length_a       3.88787
_cell_length_b       6.21108
_cell_length_c       13.0902
_cell_angle_alpha    90
_cell_angle_beta     90
_cell_angle_gamma    90

_symmetry_Int_Tables_number  62
_chemical_formula_structural  LuCuS2
_chemical_formula_sum  Lu4Cu4S8
_cell_volume  316.10054373896696
_cell_formula_units_Z  4
loop_
  _symmetry_equiv_pos_site_id
 _symmetry_equiv_pos_as_xyz
 1  'x, y, z'
loop_
 _atom_site_type_symbol
 _atom_site_label
 _atom_site_symmetry_multiplicity
 _atom_site_fract_x
 _atom_site_fract_y
 _atom_site_fract_z
 _atom_site_fract_occupancy
 Cu  Cu1  1  0.74962  0.36636  0.54907  1
 Cu  Cu2  1  0.24962  0.13364  0.45093  1
 Cu  Cu3  1  0.25038  0.86636  0.95093  1
 Cu  Cu4  1  0.75038  0.63364  0.04907  1
 Lu  Lu1  1  0.24980  0.74682  0.63372  1
 Lu  Lu2  1  0.74980  0.75318  0.36628  1
 Lu  Lu3  1  0.75020  0.24682  0.86628  1
 Lu  Lu4  1  0.25020  0.25318  0.13372  1
 S  S1  1  0.74982  0.51678  0.70939  1
 S  S2  1  0.24982  0.98322  0.29061  1
 S  S3  1  0.25018  0.01678  0.79061  1
 S  S4  1  0.75018  0.48322  0.20939  1
 S  S5  1  0.74979  0.98867  0.54128  1
 S  S6  1  0.24979  0.51133  0.45872  1
 S  S7  1  0.25021  0.48867  0.95872  1
 S  S8  1  0.75021  0.01133  0.04128  1
