CIF file written using JARVIS-Tools package.
data_Mg3Fe2N4
_symmetry_space_group_name_H-M  'C2/c'
_cell_length_a       6.09741
_cell_length_b       7.54848
_cell_length_c       5.09057
_cell_angle_alpha    90
_cell_angle_beta     90.2434
_cell_angle_gamma    128.243

_symmetry_Int_Tables_number  15
_chemical_formula_structural  Mg3Fe2N4
_chemical_formula_sum  Mg6Fe4N8
_cell_volume  184.01573483957335
_cell_formula_units_Z  2
loop_
  _symmetry_equiv_pos_site_id
 _symmetry_equiv_pos_as_xyz
 1  'x, y, z'
loop_
 _atom_site_type_symbol
 _atom_site_label
 _atom_site_symmetry_multiplicity
 _atom_site_fract_x
 _atom_site_fract_y
 _atom_site_fract_z
 _atom_site_fract_occupancy
 Fe  Fe1  1  0.59479  0.17123  0.60620  1
 Fe  Fe2  1  0.40521  0.57644  0.89380  1
 Fe  Fe3  1  0.40521  0.82877  0.39380  1
 Fe  Fe4  1  0.59479  0.42356  0.10620  1
 Mg  Mg1  1  0.00000  0.39502  0.25000  1
 Mg  Mg2  1  0.22993  0.98588  0.04850  1
 Mg  Mg3  1  0.22993  0.24405  0.54850  1
 Mg  Mg4  1  0.77007  0.01412  0.95150  1
 Mg  Mg5  1  0.77007  0.75595  0.45150  1
 Mg  Mg6  1  -0.00000  0.60498  0.75000  1
 N  N1  1  0.31227  0.57152  0.55263  1
 N  N2  1  0.31227  0.74074  0.05263  1
 N  N3  1  0.21238  0.93798  0.51676  1
 N  N4  1  0.78762  0.72561  0.98324  1
 N  N5  1  0.78762  0.06202  0.48324  1
 N  N6  1  0.21238  0.27439  0.01676  1
 N  N7  1  0.68773  0.25926  0.94737  1
 N  N8  1  0.68773  0.42848  0.44737  1
