CIF file written using JARVIS-Tools package.
data_InI
_symmetry_space_group_name_H-M  'Cmcm'
_cell_length_a       9.67475
_cell_length_b       4.8049
_cell_length_c       8.4514
_cell_angle_alpha    106.558
_cell_angle_beta     72.6717
_cell_angle_gamma    41.8918

_symmetry_Int_Tables_number  63
_chemical_formula_structural  InI
_chemical_formula_sum  In2I2
_cell_volume  151.93291903309375
_cell_formula_units_Z  2
loop_
  _symmetry_equiv_pos_site_id
 _symmetry_equiv_pos_as_xyz
 1  'x, y, z'
loop_
 _atom_site_type_symbol
 _atom_site_label
 _atom_site_symmetry_multiplicity
 _atom_site_fract_x
 _atom_site_fract_y
 _atom_site_fract_z
 _atom_site_fract_occupancy
 I  I1  1  0.46945  0.38769  0.52969  1
 I  I2  1  0.39462  0.24939  0.02953  1
 In  In1  1  0.88798  0.00994  0.02981  1
 In  In2  1  0.97615  0.62701  0.52937  1
