CIF file written using JARVIS-Tools package.
data_ZnH18C11O4
_symmetry_space_group_name_H-M  'P1'
_cell_length_a       4.11393
_cell_length_b       4.47397
_cell_length_c       15.7034
_cell_angle_alpha    82.9197
_cell_angle_beta     82.1345
_cell_angle_gamma    71.3663

_symmetry_Int_Tables_number  1
_chemical_formula_structural  ZnH18C11O4
_chemical_formula_sum  ZnH8CO4
_cell_volume  270.32843225943003
_cell_formula_units_Z  1
loop_
  _symmetry_equiv_pos_site_id
 _symmetry_equiv_pos_as_xyz
 1  'x, y, z'
loop_
 _atom_site_type_symbol
 _atom_site_label
 _atom_site_symmetry_multiplicity
 _atom_site_fract_x
 _atom_site_fract_y
 _atom_site_fract_z
 _atom_site_fract_occupancy
 C  C1  1  0.01790  0.54610  0.66394  1
 C  C2  1  0.50400  0.59882  0.34987  1
 C  C3  1  0.28087  0.55616  0.50780  1
 C  C4  1  0.17685  0.35419  0.58612  1
 C  C5  1  0.41593  0.37927  0.42648  1
 C  C6  1  0.89944  0.35743  0.74336  1
 C  C7  1  0.72074  0.56688  0.81667  1
 C  C8  1  0.58305  0.39696  0.89735  1
 C  C9  1  0.37855  0.63399  0.96212  1
 C  C10  1  0.19902  0.50760  0.04227  1
 C  C11  1  0.59057  0.44986  0.26487  1
 H  H1  1  0.64514  0.17486  0.43808  1
 H  H2  1  0.72702  0.66861  0.36135  1
 H  H3  1  0.20360  0.65408  0.68136  1
 H  H4  1  0.28702  0.81686  0.34281  1
 H  H5  1  0.50354  0.76076  0.79189  1
 H  H6  1  0.54431  0.75121  0.98502  1
 H  H7  1  0.17963  0.82732  0.93100  1
 H  H8  1  0.41853  0.26851  0.87910  1
 H  H9  1  0.47658  0.65497  0.52390  1
 H  H10  1  0.40404  0.15537  0.60355  1
 H  H11  1  0.99113  0.24585  0.56887  1
 H  H12  1  0.12265  0.16491  0.76568  1
 H  H13  1  0.72196  0.24126  0.72545  1
 H  H14  1  0.79585  0.21794  0.92785  1
 H  H15  1  0.21930  0.28219  0.41031  1
 H  H16  1  0.05517  0.76238  0.49371  1
 H  H17  1  0.89819  0.68305  0.83452  1
 H  H18  1  0.79448  0.74628  0.64482  1
 O  O1  1  0.83237  0.18085  0.26218  1
 O  O2  1  0.96225  0.70160  0.08733  1
 O  O3  1  0.43033  0.58323  0.20073  1
 O  O4  1  0.28997  0.20817  0.06055  1
 Zn  Zn1  1  0.07453  -0.00874  0.15689  1
