CIF file written using JARVIS-Tools package.
data_Sr3AlN3
_symmetry_space_group_name_H-M  'P6_3/m'
_cell_length_a       7.5902
_cell_length_b       7.59017
_cell_length_c       5.38129
_cell_angle_alpha    90
_cell_angle_beta     90
_cell_angle_gamma    120

_symmetry_Int_Tables_number  176
_chemical_formula_structural  Sr3AlN3
_chemical_formula_sum  Sr6Al2N6
_cell_volume  268.48581940261846
_cell_formula_units_Z  2
loop_
  _symmetry_equiv_pos_site_id
 _symmetry_equiv_pos_as_xyz
 1  'x, y, z'
loop_
 _atom_site_type_symbol
 _atom_site_label
 _atom_site_symmetry_multiplicity
 _atom_site_fract_x
 _atom_site_fract_y
 _atom_site_fract_z
 _atom_site_fract_occupancy
 Al  Al1  1  0.66667  0.33333  0.75000  1
 Al  Al2  1  0.33333  0.66667  0.25000  1
 N  N1  1  0.89586  0.59104  0.75000  1
 N  N2  1  0.69518  0.10414  0.75000  1
 N  N3  1  0.40896  0.30482  0.75000  1
 N  N4  1  0.10414  0.40896  0.25000  1
 N  N5  1  0.30482  0.89586  0.25000  1
 N  N6  1  0.59104  0.69518  0.25000  1
 Sr  Sr1  1  0.92465  0.64160  0.25000  1
 Sr  Sr2  1  0.71696  0.07536  0.25000  1
 Sr  Sr3  1  0.35840  0.28304  0.25000  1
 Sr  Sr4  1  0.07535  0.35840  0.75000  1
 Sr  Sr5  1  0.28304  0.92464  0.75000  1
 Sr  Sr6  1  0.64160  0.71696  0.75000  1
