CIF file written using JARVIS-Tools package.
data_Ba3Sc2N4
_symmetry_space_group_name_H-M  'C2/c'
_cell_length_a       7.62922
_cell_length_b       9.69557
_cell_length_c       6.4428
_cell_angle_alpha    90
_cell_angle_beta     92.846
_cell_angle_gamma    129.451

_symmetry_Int_Tables_number  15
_chemical_formula_structural  Ba3Sc2N4
_chemical_formula_sum  Ba6Sc4N8
_cell_volume  367.2290629545208
_cell_formula_units_Z  2
loop_
  _symmetry_equiv_pos_site_id
 _symmetry_equiv_pos_as_xyz
 1  'x, y, z'
loop_
 _atom_site_type_symbol
 _atom_site_label
 _atom_site_symmetry_multiplicity
 _atom_site_fract_x
 _atom_site_fract_y
 _atom_site_fract_z
 _atom_site_fract_occupancy
 Ba  Ba1  1  0.22941  0.96291  0.07572  1
 Ba  Ba2  1  0.77059  0.73350  0.42428  1
 Ba  Ba3  1  0.77059  0.03709  0.92428  1
 Ba  Ba4  1  0.22941  0.26650  0.57572  1
 Ba  Ba5  1  0.00000  0.59637  0.75000  1
 Ba  Ba6  1  -0.00000  0.40363  0.25000  1
 N  N1  1  0.63588  0.25200  0.89971  1
 N  N2  1  0.24508  0.33148  0.00485  1
 N  N3  1  0.75492  0.08640  0.49515  1
 N  N4  1  0.75492  0.66852  -0.00485  1
 N  N5  1  0.24508  0.91360  0.50485  1
 N  N6  1  0.63588  0.38388  0.39971  1
 N  N7  1  0.36412  0.61612  0.60029  1
 N  N8  1  0.36412  0.74800  0.10029  1
 Sc  Sc1  1  0.43642  0.60503  0.92062  1
 Sc  Sc2  1  0.43642  0.83138  0.42062  1
 Sc  Sc3  1  0.56358  0.39497  0.07938  1
 Sc  Sc4  1  0.56358  0.16862  0.57938  1
