CIF file written using JARVIS-Tools package.
data_TlIn2S2
_symmetry_space_group_name_H-M  'I4/mmm'
_cell_length_a       6.41057
_cell_length_b       6.41057
_cell_length_c       6.41057
_cell_angle_alpha    132.058
_cell_angle_beta     132.058
_cell_angle_gamma    70.1371

_symmetry_Int_Tables_number  139
_chemical_formula_structural  TlIn2S2
_chemical_formula_sum  TlIn2S2
_cell_volume  142.35880795838403
_cell_formula_units_Z  1
loop_
  _symmetry_equiv_pos_site_id
 _symmetry_equiv_pos_as_xyz
 1  'x, y, z'
loop_
 _atom_site_type_symbol
 _atom_site_label
 _atom_site_symmetry_multiplicity
 _atom_site_fract_x
 _atom_site_fract_y
 _atom_site_fract_z
 _atom_site_fract_occupancy
 In  In1  1  0.75000  0.25000  0.50000  1
 In  In2  1  0.25000  0.75000  0.50000  1
 S  S1  1  0.66606  0.66606  0.00000  1
 S  S2  1  0.33394  0.33394  0.00000  1
 Tl  Tl1  1  0.00000  0.00000  0.00000  1
