CIF file written using JARVIS-Tools package.
data_LiCeSi2
_symmetry_space_group_name_H-M  'Pnma'
_cell_length_a       3.86231
_cell_length_b       7.71961
_cell_length_c       10.5019
_cell_angle_alpha    90
_cell_angle_beta     90
_cell_angle_gamma    90

_symmetry_Int_Tables_number  62
_chemical_formula_structural  LiCeSi2
_chemical_formula_sum  Li4Ce4Si8
_cell_volume  313.1204192709035
_cell_formula_units_Z  4
loop_
  _symmetry_equiv_pos_site_id
 _symmetry_equiv_pos_as_xyz
 1  'x, y, z'
loop_
 _atom_site_type_symbol
 _atom_site_label
 _atom_site_symmetry_multiplicity
 _atom_site_fract_x
 _atom_site_fract_y
 _atom_site_fract_z
 _atom_site_fract_occupancy
 Ce  Ce1  1  0.25000  0.13666  0.86546  1
 Ce  Ce2  1  0.25000  0.63666  0.63454  1
 Ce  Ce3  1  0.75000  0.86334  0.13454  1
 Ce  Ce4  1  0.75000  0.36334  0.36546  1
 Li  Li1  1  0.25000  0.99353  0.39287  1
 Li  Li2  1  0.25000  0.49353  0.10713  1
 Li  Li3  1  0.75000  0.00647  0.60713  1
 Li  Li4  1  0.75000  0.50647  0.89287  1
 Si  Si1  1  0.25000  0.23144  0.57070  1
 Si  Si2  1  0.25000  0.73144  0.92930  1
 Si  Si3  1  0.75000  0.76856  0.42930  1
 Si  Si4  1  0.75000  0.26856  0.07070  1
 Si  Si5  1  0.25000  0.66327  0.31730  1
 Si  Si6  1  0.25000  0.16327  0.18270  1
 Si  Si7  1  0.75000  0.33673  0.68270  1
 Si  Si8  1  0.75000  0.83673  0.81730  1
