CIF file written using JARVIS-Tools package.
data_CrGa7P8
_symmetry_space_group_name_H-M  'P-42m'
_cell_length_a       5.49717
_cell_length_b       5.49717
_cell_length_c       10.952
_cell_angle_alpha    90
_cell_angle_beta     90
_cell_angle_gamma    90

_symmetry_Int_Tables_number  111
_chemical_formula_structural  CrGa7P8
_chemical_formula_sum  CrGa7P8
_cell_volume  330.95812474965527
_cell_formula_units_Z  1
loop_
  _symmetry_equiv_pos_site_id
 _symmetry_equiv_pos_as_xyz
 1  'x, y, z'
loop_
 _atom_site_type_symbol
 _atom_site_label
 _atom_site_symmetry_multiplicity
 _atom_site_fract_x
 _atom_site_fract_y
 _atom_site_fract_z
 _atom_site_fract_occupancy
 Cr  Cr1  1  0.00000  0.00000  0.00000  1
 Ga  Ga1  1  0.50000  0.50000  0.00000  1
 Ga  Ga2  1  0.50000  0.50000  0.50000  1
 Ga  Ga3  1  0.00000  0.00000  0.50000  1
 Ga  Ga4  1  0.50000  0.00000  0.75150  1
 Ga  Ga5  1  0.00000  0.50000  0.24850  1
 Ga  Ga6  1  0.50000  0.00000  0.24850  1
 Ga  Ga7  1  0.00000  0.50000  0.75150  1
 P  P1  1  0.75402  0.24598  0.87796  1
 P  P2  1  0.24598  0.75402  0.87796  1
 P  P3  1  0.75402  0.75402  0.12204  1
 P  P4  1  0.24598  0.24598  0.12204  1
 P  P5  1  0.74977  0.25023  0.37447  1
 P  P6  1  0.25023  0.74977  0.37447  1
 P  P7  1  0.74977  0.74977  0.62553  1
 P  P8  1  0.25023  0.25023  0.62553  1
