CIF file written using JARVIS-Tools package.
data_LaMg2Cr3S8
_symmetry_space_group_name_H-M  'R-3m'
_cell_length_a       7.54499
_cell_length_b       7.5456
_cell_length_c       7.54514
_cell_angle_alpha    58.2409
_cell_angle_beta     58.2471
_cell_angle_gamma    58.2417

_symmetry_Int_Tables_number  166
_chemical_formula_structural  LaMg2Cr3S8
_chemical_formula_sum  LaMg2Cr3S8
_cell_volume  291.5181065099801
_cell_formula_units_Z  1
loop_
  _symmetry_equiv_pos_site_id
 _symmetry_equiv_pos_as_xyz
 1  'x, y, z'
loop_
 _atom_site_type_symbol
 _atom_site_label
 _atom_site_symmetry_multiplicity
 _atom_site_fract_x
 _atom_site_fract_y
 _atom_site_fract_z
 _atom_site_fract_occupancy
 Cr  Cr1  1  0.50000  0.49999  0.00000  1
 Cr  Cr2  1  0.00000  0.50000  0.50000  1
 Cr  Cr3  1  0.50000  1.00000  0.50001  1
 La  La1  1  0.50000  0.50001  0.49999  1
 Mg  Mg1  1  0.87588  0.87589  0.87590  1
 Mg  Mg2  1  0.12411  0.12411  0.12410  1
 S  S1  1  0.73770  0.73764  0.73770  1
 S  S2  1  0.23741  0.23736  0.72348  1
 S  S3  1  0.23737  0.72347  0.23736  1
 S  S4  1  0.72348  0.23736  0.23741  1
 S  S5  1  0.76263  0.27653  0.76263  1
 S  S6  1  0.27652  0.76263  0.76260  1
 S  S7  1  0.26230  0.26235  0.26231  1
 S  S8  1  0.76260  0.76265  0.27652  1
