CIF file written using JARVIS-Tools package.
data_MnPbO3
_symmetry_space_group_name_H-M  'P2/c'
_cell_length_a       5.64193
_cell_length_b       4.94409
_cell_length_c       10.1588
_cell_angle_alpha    82.9962
_cell_angle_beta     90
_cell_angle_gamma    90

_symmetry_Int_Tables_number  13
_chemical_formula_structural  MnPbO3
_chemical_formula_sum  Mn4Pb4O2
_cell_volume  281.25865641839
_cell_formula_units_Z  4
loop_
  _symmetry_equiv_pos_site_id
 _symmetry_equiv_pos_as_xyz
 1  'x, y, z'
loop_
 _atom_site_type_symbol
 _atom_site_label
 _atom_site_symmetry_multiplicity
 _atom_site_fract_x
 _atom_site_fract_y
 _atom_site_fract_z
 _atom_site_fract_occupancy
 Mn  Mn1  1  0.87456  0.25000  0.00000  1
 Mn  Mn2  1  0.12544  0.75000  0.00000  1
 Mn  Mn3  1  0.37542  0.25000  0.00000  1
 Mn  Mn4  1  0.62458  0.75000  0.00000  1
 O  O1  1  0.37548  0.60763  0.90147  1
 O  O2  1  0.80622  0.52701  0.40401  1
 O  O3  1  0.62452  0.39237  0.09853  1
 O  O4  1  0.62452  0.10763  0.90147  1
 O  O5  1  0.37548  0.89237  0.09853  1
 O  O6  1  0.12422  0.10678  0.90094  1
 O  O7  1  0.87578  0.60678  0.90094  1
 O  O8  1  0.19378  0.47299  0.59599  1
 O  O9  1  0.12422  0.39322  0.09906  1
 O  O10  1  0.19378  0.02701  0.40401  1
 O  O11  1  0.87578  0.89322  0.09906  1
 O  O12  1  0.80622  0.97299  0.59599  1
 Pb  Pb1  1  0.77520  0.03174  0.36574  1
 Pb  Pb2  1  0.77520  0.46826  0.63426  1
 Pb  Pb3  1  0.22480  0.96826  0.63426  1
 Pb  Pb4  1  0.22480  0.53174  0.36574  1
