CIF file written using JARVIS-Tools package.
data_ZnH18C11O4
_symmetry_space_group_name_H-M  'P1'
_cell_length_a       4.37159
_cell_length_b       4.86942
_cell_length_c       14.2237
_cell_angle_alpha    97.9683
_cell_angle_beta     90.8481
_cell_angle_gamma    115.304

_symmetry_Int_Tables_number  1
_chemical_formula_structural  ZnH18C11O4
_chemical_formula_sum  ZnH8CO4
_cell_volume  270.1592985222526
_cell_formula_units_Z  1
loop_
  _symmetry_equiv_pos_site_id
 _symmetry_equiv_pos_as_xyz
 1  'x, y, z'
loop_
 _atom_site_type_symbol
 _atom_site_label
 _atom_site_symmetry_multiplicity
 _atom_site_fract_x
 _atom_site_fract_y
 _atom_site_fract_z
 _atom_site_fract_occupancy
 C  C1  1  0.29957  0.77236  0.35191  1
 C  C2  1  0.07483  0.18686  0.66194  1
 C  C3  1  0.66964  0.98505  0.50927  1
 C  C4  1  0.59644  0.04600  0.41065  1
 C  C5  1  0.96954  0.25750  0.56745  1
 C  C6  1  0.22588  0.82989  0.25283  1
 C  C7  1  0.93701  0.55105  0.19335  1
 C  C8  1  0.84411  0.61296  0.09677  1
 C  C9  1  0.57205  0.32249  0.03725  1
 C  C10  1  0.40640  0.36795  0.95010  1
 C  C11  1  0.82269  0.16611  0.73536  1
 H  H1  1  0.19101  0.32756  0.52488  1
 H  H2  1  0.32512  0.36803  0.69025  1
 H  H3  1  0.35381  0.56897  0.34453  1
 H  H4  1  0.09099  -0.03384  0.64894  1
 H  H5  1  0.71029  0.47427  0.23408  1
 H  H6  1  0.67042  0.15224  0.01471  1
 H  H7  1  0.36130  0.20754  0.08088  1
 H  H8  1  0.75328  0.79289  0.10787  1
 H  H9  1  0.72420  0.78180  0.50099  1
 H  H10  1  0.82609  0.10605  0.37135  1
 H  H11  1  0.54315  0.24988  0.41834  1
 H  H12  1  0.45789  0.89733  0.21451  1
 H  H13  1  0.16267  0.02819  0.26018  1
 H  H14  1  0.07085  0.70243  0.05703  1
 H  H15  1  0.91163  0.45803  0.58218  1
 H  H16  1  0.44091  0.92278  0.54866  1
 H  H17  1  0.00822  0.35747  0.18243  1
 H  H18  1  0.06962  0.71210  0.39107  1
 O  O1  1  0.84196  0.40905  0.78810  1
 O  O2  1  0.20646  0.13373  0.89099  1
 O  O3  1  0.58436  0.89871  0.73779  1
 O  O4  1  0.45949  0.64240  0.94226  1
 Zn  Zn1  1  0.27003  0.76820  0.83808  1
