CIF file written using JARVIS-Tools package.
data_Mn2RuN3
_symmetry_space_group_name_H-M  'Cmc2_1'
_cell_length_a       5.17198
_cell_length_b       5.50545
_cell_length_c       4.92212
_cell_angle_alpha    90
_cell_angle_beta     90
_cell_angle_gamma    122.157

_symmetry_Int_Tables_number  36
_chemical_formula_structural  Mn2RuN3
_chemical_formula_sum  Mn4Ru2N6
_cell_volume  118.65284621037685
_cell_formula_units_Z  2
loop_
  _symmetry_equiv_pos_site_id
 _symmetry_equiv_pos_as_xyz
 1  'x, y, z'
loop_
 _atom_site_type_symbol
 _atom_site_label
 _atom_site_symmetry_multiplicity
 _atom_site_fract_x
 _atom_site_fract_y
 _atom_site_fract_z
 _atom_site_fract_occupancy
 Mn  Mn1  1  0.35711  0.38476  0.52016  1
 Mn  Mn2  1  0.64289  0.02765  0.52016  1
 Mn  Mn3  1  0.64289  0.61524  0.02016  1
 Mn  Mn4  1  0.35711  0.97235  0.02016  1
 N  N1  1  0.33149  0.27509  0.88137  1
 N  N2  1  0.66851  0.94361  0.88137  1
 N  N3  1  0.66851  0.72491  0.38137  1
 N  N4  1  0.33149  0.05639  0.38137  1
 N  N5  1  -0.00000  0.71118  0.84146  1
 N  N6  1  0.00000  0.28882  0.34146  1
 Ru  Ru1  1  0.00000  0.64166  0.44348  1
 Ru  Ru2  1  -0.00000  0.35834  0.94348  1
