CIF file written using JARVIS-Tools package.
data_Er2Si4Mo3
_symmetry_space_group_name_H-M  'P2_1/c'
_cell_length_a       6.90547
_cell_length_b       6.73124
_cell_length_c       6.84812
_cell_angle_alpha    70.9687
_cell_angle_beta     90
_cell_angle_gamma    90

_symmetry_Int_Tables_number  14
_chemical_formula_structural  Er2Si4Mo3
_chemical_formula_sum  Er4Si8Mo6
_cell_volume  300.91771696800316
_cell_formula_units_Z  2
loop_
  _symmetry_equiv_pos_site_id
 _symmetry_equiv_pos_as_xyz
 1  'x, y, z'
loop_
 _atom_site_type_symbol
 _atom_site_label
 _atom_site_symmetry_multiplicity
 _atom_site_fract_x
 _atom_site_fract_y
 _atom_site_fract_z
 _atom_site_fract_occupancy
 Er  Er1  1  0.67016  0.43918  0.19064  1
 Er  Er2  1  0.17016  0.06082  0.80936  1
 Er  Er3  1  0.32984  0.56082  0.80936  1
 Er  Er4  1  0.82984  0.93918  0.19064  1
 Mo  Mo1  1  0.16275  0.25118  0.24847  1
 Mo  Mo2  1  0.00000  0.50000  0.50000  1
 Mo  Mo3  1  0.50000  -0.00000  0.50000  1
 Mo  Mo4  1  0.83725  0.74882  0.75153  1
 Mo  Mo5  1  0.33725  0.75118  0.24847  1
 Mo  Mo6  1  0.66275  0.24882  0.75153  1
 Si  Si1  1  0.95590  0.36574  0.91061  1
 Si  Si2  1  0.45590  0.13426  0.08939  1
 Si  Si3  1  0.04410  0.63426  0.08939  1
 Si  Si4  1  0.86784  0.12899  0.50385  1
 Si  Si5  1  0.36784  0.37101  0.49615  1
 Si  Si6  1  0.13216  0.87101  0.49615  1
 Si  Si7  1  0.63216  0.62899  0.50385  1
 Si  Si8  1  0.54410  0.86574  0.91061  1
