CIF file written using JARVIS-Tools package.
data_Li3CuN2
_symmetry_space_group_name_H-M  'Cmce'
_cell_length_a       5.94366
_cell_length_b       7.24267
_cell_length_c       6.59351
_cell_angle_alpha    90
_cell_angle_beta     123.68
_cell_angle_gamma    90

_symmetry_Int_Tables_number  64
_chemical_formula_structural  Li3CuN2
_chemical_formula_sum  Li2Cu4N8
_cell_volume  236.1937483865973
_cell_formula_units_Z  4
loop_
  _symmetry_equiv_pos_site_id
 _symmetry_equiv_pos_as_xyz
 1  'x, y, z'
loop_
 _atom_site_type_symbol
 _atom_site_label
 _atom_site_symmetry_multiplicity
 _atom_site_fract_x
 _atom_site_fract_y
 _atom_site_fract_z
 _atom_site_fract_occupancy
 Cu  Cu1  1  0.85151  0.69825  0.92563  1
 Cu  Cu2  1  0.14849  0.19825  0.57437  1
 Cu  Cu3  1  0.14849  0.30175  0.07437  1
 Cu  Cu4  1  0.85151  0.80175  0.42563  1
 Li  Li1  1  0.25829  0.99733  0.91170  1
 Li  Li2  1  0.74171  0.49733  0.58830  1
 Li  Li3  1  0.74171  0.00267  0.08830  1
 Li  Li4  1  0.25829  0.50267  0.41170  1
 Li  Li5  1  0.74170  0.00264  0.65330  1
 Li  Li6  1  0.65951  0.22090  0.32968  1
 Li  Li7  1  0.74170  0.49736  0.15330  1
 Li  Li8  1  0.25830  0.99736  0.34670  1
 Li  Li9  1  0.65951  0.27910  0.82968  1
 Li  Li10  1  0.34049  0.77910  0.67032  1
 Li  Li11  1  0.34049  0.72090  0.17032  1
 Li  Li12  1  0.25830  0.50264  0.84670  1
 N  N1  1  0.00971  0.74999  0.75473  1
 N  N2  1  0.00971  0.75001  0.25473  1
 N  N3  1  0.45340  0.04274  0.72671  1
 N  N4  1  0.54660  0.54274  0.77329  1
 N  N5  1  0.54660  0.95726  0.27329  1
 N  N6  1  0.45340  0.45726  0.22671  1
 N  N7  1  0.99029  0.24999  0.74527  1
 N  N8  1  0.99029  0.25001  0.24527  1
