CIF file written using JARVIS-Tools package.
data_ZnH18C11O4
_symmetry_space_group_name_H-M  'P1'
_cell_length_a       4.05597
_cell_length_b       4.45381
_cell_length_c       16.4236
_cell_angle_alpha    85.8818
_cell_angle_beta     83.9109
_cell_angle_gamma    68.2078

_symmetry_Int_Tables_number  1
_chemical_formula_structural  ZnH18C11O4
_chemical_formula_sum  ZnH8CO4
_cell_volume  273.75918461821647
_cell_formula_units_Z  1
loop_
  _symmetry_equiv_pos_site_id
 _symmetry_equiv_pos_as_xyz
 1  'x, y, z'
loop_
 _atom_site_type_symbol
 _atom_site_label
 _atom_site_symmetry_multiplicity
 _atom_site_fract_x
 _atom_site_fract_y
 _atom_site_fract_z
 _atom_site_fract_occupancy
 C  C1  1  0.98498  0.56780  0.65556  1
 C  C2  1  0.15246  0.60119  0.34385  1
 C  C3  1  0.06639  0.58016  0.49937  1
 C  C4  1  0.03326  0.38172  0.57767  1
 C  C5  1  0.11913  0.39508  0.42112  1
 C  C6  1  0.94942  0.37448  0.73467  1
 C  C7  1  0.89927  0.56767  0.81135  1
 C  C8  1  0.84983  0.38713  0.89181  1
 C  C9  1  0.79188  0.60041  0.96490  1
 C  C10  1  0.70081  0.46507  0.04791  1
 C  C11  1  0.21736  0.41799  0.26602  1
 H  H1  1  0.35973  0.17351  0.42266  1
 H  H2  1  0.38117  0.67644  0.34603  1
 H  H3  1  0.21172  0.64721  0.65704  1
 H  H4  1  -0.08578  0.82163  0.34004  1
 H  H5  1  0.66526  0.79474  0.80669  1
 H  H6  1  0.03131  0.65638  0.97064  1
 H  H7  1  0.57867  0.83674  0.95572  1
 H  H8  1  0.61972  0.31304  0.89034  1
 H  H9  1  0.29130  0.66161  0.50143  1
 H  H10  1  0.27266  0.15800  0.57964  1
 H  H11  1  0.80698  0.30192  0.57600  1
 H  H12  1  0.18770  0.15029  0.73769  1
 H  H13  1  0.72226  0.29560  0.73341  1
 H  H14  1  0.08233  0.16173  0.89865  1
 H  H15  1  0.89405  0.31487  0.41827  1
 H  H16  1  0.82615  0.80313  0.49731  1
 H  H17  1  0.12895  0.64288  0.81301  1
 H  H18  1  0.74642  0.79219  0.65317  1
 O  O1  1  0.02274  0.52069  0.20724  1
 O  O2  1  0.51186  0.65958  0.10247  1
 O  O3  1  0.48315  0.14614  0.26318  1
 O  O4  1  0.81797  0.15714  0.05888  1
 Zn  Zn1  1  0.69244  0.94250  0.15936  1
