CIF file written using JARVIS-Tools package.
data_Li2MnCoO4
_symmetry_space_group_name_H-M  'P2/c'
_cell_length_a       4.93246
_cell_length_b       5.80845
_cell_length_c       5.0907
_cell_angle_alpha    90.0001
_cell_angle_beta     108.765
_cell_angle_gamma    90.0001

_symmetry_Int_Tables_number  13
_chemical_formula_structural  Li2MnCoO4
_chemical_formula_sum  Li4Mn2Co2O8
_cell_volume  138.095891890646
_cell_formula_units_Z  2
loop_
  _symmetry_equiv_pos_site_id
 _symmetry_equiv_pos_as_xyz
 1  'x, y, z'
loop_
 _atom_site_type_symbol
 _atom_site_label
 _atom_site_symmetry_multiplicity
 _atom_site_fract_x
 _atom_site_fract_y
 _atom_site_fract_z
 _atom_site_fract_occupancy
 Co  Co1  1  0.49999  0.23385  -0.00000  1
 Co  Co2  1  0.00001  0.01615  -0.00000  1
 Li  Li1  1  0.50000  0.00459  0.50000  1
 Li  Li2  1  -0.00000  0.24542  0.50000  1
 Li  Li3  1  0.50000  0.49830  0.50000  1
 Li  Li4  1  0.00000  0.75170  0.50000  1
 Mn  Mn1  1  -0.00000  0.49811  -0.00000  1
 Mn  Mn2  1  0.50000  0.75189  0.00000  1
 O  O1  1  0.73598  0.97968  0.24258  1
 O  O2  1  0.23598  0.27032  0.24259  1
 O  O3  1  0.26402  0.97968  0.75741  1
 O  O4  1  0.76402  0.27032  0.75742  1
 O  O5  1  0.75015  0.51223  0.22115  1
 O  O6  1  0.25016  0.73778  0.22115  1
 O  O7  1  0.24985  0.51223  0.77885  1
 O  O8  1  0.74985  0.73778  0.77885  1
