CIF file written using JARVIS-Tools package.
data_Sr2AlTlCo2O7
_symmetry_space_group_name_H-M  'Cm'
_cell_length_a       3.69223
_cell_length_b       3.69225
_cell_length_c       12.1168
_cell_angle_alpha    86.7328
_cell_angle_beta     93.2555
_cell_angle_gamma    91.0058

_symmetry_Int_Tables_number  8
_chemical_formula_structural  Sr2AlTlCo2O7
_chemical_formula_sum  Sr2AlTlCo2O7
_cell_volume  164.63174516628496
_cell_formula_units_Z  1
loop_
  _symmetry_equiv_pos_site_id
 _symmetry_equiv_pos_as_xyz
 1  'x, y, z'
loop_
 _atom_site_type_symbol
 _atom_site_label
 _atom_site_symmetry_multiplicity
 _atom_site_fract_x
 _atom_site_fract_y
 _atom_site_fract_z
 _atom_site_fract_occupancy
 Al  Al1  1  0.44668  0.55318  0.51150  1
 Co  Co1  1  0.93538  0.06486  0.63000  1
 Co  Co2  1  0.06264  0.93706  0.36867  1
 O  O1  1  0.42805  0.07995  0.59243  1
 O  O2  1  0.92035  0.57224  0.59238  1
 O  O3  1  0.57483  0.88352  0.39431  1
 O  O4  1  0.11618  0.42482  0.39433  1
 O  O5  1  0.96318  0.03708  0.79269  1
 O  O6  1  0.04015  0.95966  0.20239  1
 O  O7  1  0.50049  0.49955  0.00223  1
 Sr  Sr1  1  0.46440  0.53587  0.79657  1
 Sr  Sr2  1  0.54401  0.45579  0.21798  1
 Tl  Tl1  1  0.00365  0.99642  0.00453  1
