CIF file written using JARVIS-Tools package.
data_ZnH18C11O4
_symmetry_space_group_name_H-M  'P1'
_cell_length_a       4.47316
_cell_length_b       5.02373
_cell_length_c       14.1908
_cell_angle_alpha    103.501
_cell_angle_beta     79.306
_cell_angle_gamma    118.924

_symmetry_Int_Tables_number  1
_chemical_formula_structural  ZnH18C11O4
_chemical_formula_sum  ZnH8CO4
_cell_volume  270.41195558799245
_cell_formula_units_Z  1
loop_
  _symmetry_equiv_pos_site_id
 _symmetry_equiv_pos_as_xyz
 1  'x, y, z'
loop_
 _atom_site_type_symbol
 _atom_site_label
 _atom_site_symmetry_multiplicity
 _atom_site_fract_x
 _atom_site_fract_y
 _atom_site_fract_z
 _atom_site_fract_occupancy
 C  C1  1  0.28186  0.79920  0.66112  1
 C  C2  1  0.94726  0.86170  0.34774  1
 C  C3  1  0.10673  0.81850  0.50245  1
 C  C4  1  0.05298  0.61860  0.57660  1
 C  C5  1  0.87042  0.64904  0.41978  1
 C  C6  1  0.16066  0.01003  0.73520  1
 C  C7  1  0.40226  0.20664  0.81559  1
 C  C8  1  0.26025  0.39576  0.89245  1
 C  C9  1  0.49909  0.59799  0.97421  1
 C  C10  1  0.30206  0.71698  0.05601  1
 C  C11  1  0.69988  0.73641  0.27032  1
 H  H1  1  0.90143  0.44602  0.38118  1
 H  H2  1  0.20518  0.92644  0.30993  1
 H  H3  1  0.29471  0.63803  0.69934  1
 H  H4  1  0.95539  0.08207  0.38626  1
 H  H5  1  0.65545  0.36047  0.78314  1
 H  H6  1  0.58232  0.45854  0.00113  1
 H  H7  1  0.72705  0.79183  0.94720  1
 H  H8  1  0.20913  0.54341  0.85803  1
 H  H9  1  0.37685  0.91427  0.47195  1
 H  H10  1  0.10648  0.42641  0.53884  1
 H  H11  1  0.78082  0.51262  0.60526  1
 H  H12  1  0.90304  0.86771  0.76833  1
 H  H13  1  0.12907  0.16290  0.69779  1
 H  H14  1  0.01092  0.23817  0.92528  1
 H  H15  1  0.60110  0.56166  0.44976  1
 H  H16  1  0.06795  0.01908  0.53994  1
 H  H17  1  0.44549  0.05739  0.85162  1
 H  H18  1  0.54651  0.93799  0.63149  1
 O  O1  1  0.72683  0.91140  0.21315  1
 O  O2  1  0.33652  -0.01405  0.05734  1
 O  O3  1  0.46322  0.45893  0.26673  1
 O  O4  1  0.09223  0.53922  0.11540  1
 Zn  Zn1  1  0.15740  0.22855  0.16064  1
