CIF file written using JARVIS-Tools package.
data_CaCr2O4
_symmetry_space_group_name_H-M  'R3m'
_cell_length_a       5.96204
_cell_length_b       11.5885
_cell_length_c       5.9624
_cell_angle_alpha    104.907
_cell_angle_beta     120.002
_cell_angle_gamma    75.1119

_symmetry_Int_Tables_number  160
_chemical_formula_structural  CaCr2O4
_chemical_formula_sum  Ca4Cr8O6
_cell_volume  340.6684306619062
_cell_formula_units_Z  4
loop_
  _symmetry_equiv_pos_site_id
 _symmetry_equiv_pos_as_xyz
 1  'x, y, z'
loop_
 _atom_site_type_symbol
 _atom_site_label
 _atom_site_symmetry_multiplicity
 _atom_site_fract_x
 _atom_site_fract_y
 _atom_site_fract_z
 _atom_site_fract_occupancy
 Ca  Ca1  1  0.99186  0.02535  0.00860  1
 Ca  Ca2  1  0.49180  0.52535  0.50857  1
 Ca  Ca3  1  0.31827  0.04546  0.68186  1
 Ca  Ca4  1  0.81824  0.54546  0.18184  1
 Cr  Cr1  1  0.56990  0.80016  0.43012  1
 Cr  Cr2  1  0.57521  0.27421  0.42471  1
 Cr  Cr3  1  0.56990  0.80016  0.93995  1
 Cr  Cr4  1  0.07526  0.77420  0.92473  1
 Cr  Cr5  1  0.55999  0.30016  0.93008  1
 Cr  Cr6  1  0.06984  0.30016  0.93009  1
 Cr  Cr7  1  0.06006  0.80015  0.43010  1
 Cr  Cr8  1  0.06984  0.30016  0.43992  1
 O  O1  1  0.44289  0.69825  0.07057  1
 O  O2  1  0.20390  0.38831  0.79611  1
 O  O3  1  0.20469  0.39324  0.29896  1
 O  O4  1  0.92758  0.21680  0.07219  1
 O  O5  1  0.42766  0.71679  0.57223  1
 O  O6  1  0.94284  0.19824  0.57054  1
 O  O7  1  0.70396  0.88830  0.29614  1
 O  O8  1  0.20111  0.89321  0.79896  1
 O  O9  1  0.92934  0.69824  0.55706  1
 O  O10  1  0.70106  0.39321  0.79533  1
 O  O11  1  0.20111  0.89321  0.29536  1
 O  O12  1  0.70106  0.39321  0.29894  1
 O  O13  1  0.42927  0.19825  0.57049  1
 O  O14  1  0.42927  0.19825  0.05704  1
 O  O15  1  0.92934  0.69825  0.07052  1
 O  O16  1  0.70475  0.89324  0.79899  1
