CIF file written using JARVIS-Tools package.
data_La2Se
_symmetry_space_group_name_H-M  'Pmmm'
_cell_length_a       3.9935
_cell_length_b       3.62877
_cell_length_c       7.34189
_cell_angle_alpha    90
_cell_angle_beta     90
_cell_angle_gamma    90

_symmetry_Int_Tables_number  47
_chemical_formula_structural  La2Se
_chemical_formula_sum  La2Se
_cell_volume  106.39515678892505
_cell_formula_units_Z  1
loop_
  _symmetry_equiv_pos_site_id
 _symmetry_equiv_pos_as_xyz
 1  'x, y, z'
loop_
 _atom_site_type_symbol
 _atom_site_label
 _atom_site_symmetry_multiplicity
 _atom_site_fract_x
 _atom_site_fract_y
 _atom_site_fract_z
 _atom_site_fract_occupancy
 La  La1  1  -0.03339  0.00000  0.71176  1
 La  La2  1  -0.03339  0.00000  0.28824  1
 Se  Se1  1  0.46677  0.00000  0.00000  1
