CIF file written using JARVIS-Tools package.
data_K2Te
_symmetry_space_group_name_H-M  'Amm2'
_cell_length_a       5.09942
_cell_length_b       4.86534
_cell_length_c       6.23661
_cell_angle_alpha    67.0489
_cell_angle_beta     90.0457
_cell_angle_gamma    90.0004

_symmetry_Int_Tables_number  38
_chemical_formula_structural  K2Te
_chemical_formula_sum  K2Te
_cell_volume  142.484011740178
_cell_formula_units_Z  1
loop_
  _symmetry_equiv_pos_site_id
 _symmetry_equiv_pos_as_xyz
 1  'x, y, z'
loop_
 _atom_site_type_symbol
 _atom_site_label
 _atom_site_symmetry_multiplicity
 _atom_site_fract_x
 _atom_site_fract_y
 _atom_site_fract_z
 _atom_site_fract_occupancy
 K  K1  1  0.96900  0.01869  0.06460  1
 K  K2  1  0.46897  0.75887  0.58411  1
 Te  Te1  1  0.46921  0.46493  0.17189  1
