CIF file written using JARVIS-Tools package.
data_ZnH18C11O4
_symmetry_space_group_name_H-M  'P1'
_cell_length_a       4.2058
_cell_length_b       4.64475
_cell_length_c       15.1587
_cell_angle_alpha    89.7942
_cell_angle_beta     93.5405
_cell_angle_gamma    113.407

_symmetry_Int_Tables_number  1
_chemical_formula_structural  ZnH18C11O4
_chemical_formula_sum  ZnH8CO4
_cell_volume  271.1643248618743
_cell_formula_units_Z  1
loop_
  _symmetry_equiv_pos_site_id
 _symmetry_equiv_pos_as_xyz
 1  'x, y, z'
loop_
 _atom_site_type_symbol
 _atom_site_label
 _atom_site_symmetry_multiplicity
 _atom_site_fract_x
 _atom_site_fract_y
 _atom_site_fract_z
 _atom_site_fract_occupancy
 C  C1  1  0.15818  0.70237  0.34853  1
 C  C2  1  0.86692  0.98117  0.64643  1
 C  C3  1  0.49441  0.83215  0.50101  1
 C  C4  1  0.43998  0.94743  0.40886  1
 C  C5  1  0.78512  0.08797  0.55649  1
 C  C6  1  0.11692  0.83071  0.25737  1
 C  C7  1  0.84417  0.59294  0.19337  1
 C  C8  1  0.80222  0.73910  0.10517  1
 C  C9  1  0.53381  0.50726  0.03876  1
 C  C10  1  0.45536  0.67002  0.95886  1
 C  C11  1  0.29536  0.20073  0.76823  1
 H  H1  1  0.02287  0.17247  0.52020  1
 H  H2  1  0.91951  0.76803  0.64183  1
 H  H3  1  0.22271  0.49601  0.34083  1
 H  H4  1  0.65520  0.93450  0.69053  1
 H  H5  1  0.59268  0.49426  0.22392  1
 H  H6  1  0.63333  0.33801  0.01402  1
 H  H7  1  0.28856  0.37478  0.06905  1
 H  H8  1  0.72545  0.93562  0.11768  1
 H  H9  1  0.55914  0.62559  0.49462  1
 H  H10  1  0.68737  0.03090  0.37642  1
 H  H11  1  0.37612  0.15460  0.41557  1
 H  H12  1  0.36958  -0.07874  0.22740  1
 H  H13  1  0.04906  0.03508  0.26558  1
 H  H14  1  0.05337  0.84218  0.07518  1
 H  H15  1  0.71513  0.28986  0.56608  1
 H  H16  1  0.25130  0.75148  0.53503  1
 H  H17  1  -0.08212  0.39398  0.18179  1
 H  H18  1  0.90849  0.61765  0.37989  1
 O  O1  1  0.57679  0.40903  0.79481  1
 O  O2  1  0.14064  0.57093  0.92793  1
 O  O3  1  0.18099  0.23652  0.68410  1
 O  O4  1  0.69580  0.90428  0.92626  1
 Zn  Zn1  1  0.01834  0.84320  0.84458  1
