CIF file written using JARVIS-Tools package.
data_Sr2LaMnCoO7
_symmetry_space_group_name_H-M  'I4mm'
_cell_length_a       5.42334
_cell_length_b       10.3708
_cell_length_c       5.42342
_cell_angle_alpha    74.8414
_cell_angle_beta     89.9996
_cell_angle_gamma    90.0019

_symmetry_Int_Tables_number  107
_chemical_formula_structural  Sr2LaMnCoO7
_chemical_formula_sum  Sr4La2Mn2Co2O4
_cell_volume  294.4247791565281
_cell_formula_units_Z  2
loop_
  _symmetry_equiv_pos_site_id
 _symmetry_equiv_pos_as_xyz
 1  'x, y, z'
loop_
 _atom_site_type_symbol
 _atom_site_label
 _atom_site_symmetry_multiplicity
 _atom_site_fract_x
 _atom_site_fract_y
 _atom_site_fract_z
 _atom_site_fract_occupancy
 Co  Co1  1  0.00000  0.81082  0.09454  1
 Co  Co2  1  0.49994  0.81082  0.59468  1
 La  La1  1  0.49996  0.63703  0.18202  1
 La  La2  1  0.99961  0.63703  0.68123  1
 Mn  Mn1  1  0.50004  0.19238  0.40383  1
 Mn  Mn2  1  0.00006  0.19238  0.90373  1
 O  O1  1  0.75007  0.19396  0.65298  1
 O  O2  1  0.99981  0.60968  0.19566  1
 O  O3  1  0.75006  0.19370  0.15311  1
 O  O4  1  0.50007  0.39561  0.30202  1
 O  O5  1  0.00002  0.39561  0.80232  1
 O  O6  1  0.49992  0.00239  0.49926  1
 O  O7  1  0.50017  0.60968  0.69467  1
 O  O8  1  0.74992  0.79928  0.85043  1
 O  O9  1  0.25006  0.19402  0.65295  1
 O  O10  1  0.74996  0.79972  0.35015  1
 O  O11  1  0.24996  0.79913  0.85045  1
 O  O12  1  0.00021  0.00238  0.99825  1
 O  O13  1  0.25007  0.19375  0.15308  1
 O  O14  1  0.24992  0.79956  0.35029  1
 Sr  Sr1  1  0.50004  0.36333  0.81841  1
 Sr  Sr2  1  0.00004  0.36333  0.31821  1
 Sr  Sr3  1  0.50007  0.00220  0.99891  1
 Sr  Sr4  1  0.00004  0.00220  0.49881  1
