CIF file written using JARVIS-Tools package.
data_ZnH20C12O4
_symmetry_space_group_name_H-M  'P1'
_cell_length_a       3.99269
_cell_length_b       4.75761
_cell_length_c       16.8047
_cell_angle_alpha    81.8485
_cell_angle_beta     90.8375
_cell_angle_gamma    113.657

_symmetry_Int_Tables_number  1
_chemical_formula_structural  ZnH20C12O4
_chemical_formula_sum  ZnH20C2O4
_cell_volume  289.12141834439115
_cell_formula_units_Z  1
loop_
  _symmetry_equiv_pos_site_id
 _symmetry_equiv_pos_as_xyz
 1  'x, y, z'
loop_
 _atom_site_type_symbol
 _atom_site_label
 _atom_site_symmetry_multiplicity
 _atom_site_fract_x
 _atom_site_fract_y
 _atom_site_fract_z
 _atom_site_fract_occupancy
 C  C1  1  -0.04670  -0.00203  0.61435  1
 C  C2  1  0.58341  0.42185  0.33727  1
 C  C3  1  0.25986  0.20252  0.47460  1
 C  C4  1  -0.01230  -0.07676  0.53017  1
 C  C5  1  0.30666  0.13689  0.38995  1
 C  C6  1  0.69009  0.72726  0.67365  1
 C  C7  1  0.66961  0.82490  0.75567  1
 C  C8  1  0.42075  0.56663  0.81985  1
 C  C9  1  0.43704  0.68223  0.90081  1
 C  C10  1  0.21535  0.42979  0.96920  1
 C  C11  1  0.30982  0.51870  0.05256  1
 C  C12  1  0.68504  0.36749  0.25597  1
 H  H1  1  0.52792  0.28401  0.50217  1
 H  H2  1  0.84356  0.51302  0.36793  1
 H  H3  1  0.22609  0.08422  0.63974  1
 H  H4  1  0.49303  0.61315  0.32750  1
 H  H5  1  0.57799  0.01667  0.74780  1
 H  H6  1  0.17229  0.39638  0.47073  1
 H  H7  1  0.04267  0.05682  0.36090  1
 H  H8  1  0.25927  0.21590  0.96850  1
 H  H9  1  0.13717  0.47306  0.80022  1
 H  H10  1  0.50769  0.37187  0.82694  1
 H  H11  1  0.41539  0.63522  0.64940  1
 H  H12  1  -0.05192  -0.07809  0.77813  1
 H  H13  1  -0.21845  0.53496  0.68085  1
 H  H14  1  0.07539  0.72953  0.53444  1
 H  H15  1  -0.08130  0.36104  0.96349  1
 H  H16  1  0.39725  -0.05462  0.39422  1
 H  H17  1  0.34462  0.87346  0.89464  1
 H  H18  1  0.72527  0.78549  0.91699  1
 H  H19  1  0.71787  0.84151  0.50342  1
 H  H20  1  0.86565  0.19207  0.60942  1
 O  O1  1  0.85963  0.59598  0.20235  1
 O  O2  1  0.49876  0.80642  0.05692  1
 O  O3  1  0.60348  0.08483  0.24713  1
 O  O4  1  0.21393  0.30886  0.11367  1
 Zn  Zn1  1  0.75028  0.95272  0.15380  1
