CIF file written using JARVIS-Tools package.
data_Li5MnCo2O8
_symmetry_space_group_name_H-M  'Cm'
_cell_length_a       4.96321
_cell_length_b       4.96321
_cell_length_c       9.87469
_cell_angle_alpha    80.1511
_cell_angle_beta     80.1511
_cell_angle_gamma    33.0363

_symmetry_Int_Tables_number  8
_chemical_formula_structural  Li5MnCo2O8
_chemical_formula_sum  Li5MnCo2O8
_cell_volume  130.48402118530782
_cell_formula_units_Z  1
loop_
  _symmetry_equiv_pos_site_id
 _symmetry_equiv_pos_as_xyz
 1  'x, y, z'
loop_
 _atom_site_type_symbol
 _atom_site_label
 _atom_site_symmetry_multiplicity
 _atom_site_fract_x
 _atom_site_fract_y
 _atom_site_fract_z
 _atom_site_fract_occupancy
 Co  Co1  1  -0.00229  -0.00229  0.50601  1
 Co  Co2  1  0.49906  0.49906  0.25206  1
 Li  Li1  1  0.76240  0.76240  0.85964  1
 Li  Li2  1  0.24653  0.24653  0.63073  1
 Li  Li3  1  0.74913  0.74913  0.37981  1
 Li  Li4  1  0.24957  0.24957  0.12913  1
 Li  Li5  1  0.49704  0.49704  0.74221  1
 Mn  Mn1  1  0.00458  0.00458  0.98828  1
 O  O1  1  0.12077  0.12077  0.83040  1
 O  O2  1  0.61102  0.61102  0.55417  1
 O  O3  1  0.10771  0.10771  0.31541  1
 O  O4  1  0.60639  0.60639  0.06875  1
 O  O5  1  0.38549  0.38549  0.94916  1
 O  O6  1  0.87931  0.87931  0.67396  1
 O  O7  1  0.39129  0.39129  0.43394  1
 O  O8  1  0.89200  0.89200  0.18634  1
