CIF file written using JARVIS-Tools package.
data_LiV3Zn2O8
_symmetry_space_group_name_H-M  'R3m'
_cell_length_a       5.93133
_cell_length_b       8.3333
_cell_length_c       5.85299
_cell_angle_alpha    90.0007
_cell_angle_beta     90.0065
_cell_angle_gamma    91.07

_symmetry_Int_Tables_number  160
_chemical_formula_structural  LiV3Zn2O8
_chemical_formula_sum  Li2V6Zn4O6
_cell_volume  289.24853754767327
_cell_formula_units_Z  2
loop_
  _symmetry_equiv_pos_site_id
 _symmetry_equiv_pos_as_xyz
 1  'x, y, z'
loop_
 _atom_site_type_symbol
 _atom_site_label
 _atom_site_symmetry_multiplicity
 _atom_site_fract_x
 _atom_site_fract_y
 _atom_site_fract_z
 _atom_site_fract_occupancy
 Li  Li1  1  0.24452  0.37776  0.00000  1
 Li  Li2  1  0.74453  0.87776  0.50002  1
 O  O1  1  0.77165  0.61417  -0.00002  1
 O  O2  1  0.21278  0.62618  0.00002  1
 O  O3  1  0.24312  0.62847  0.50003  1
 O  O4  1  0.74311  0.12846  0.00002  1
 O  O5  1  0.98023  0.39361  0.23259  1
 O  O6  1  0.48025  0.89361  0.73260  1
 O  O7  1  0.27164  0.11419  0.49998  1
 O  O8  1  0.50864  0.35997  0.77141  1
 O  O9  1  0.78003  0.63138  0.49999  1
 O  O10  1  0.28002  0.13137  -0.00002  1
 O  O11  1  0.00867  0.85997  0.72856  1
 O  O12  1  0.50866  0.35996  0.22858  1
 O  O13  1  0.98022  0.39360  0.76741  1
 O  O14  1  0.48023  0.89360  0.26742  1
 O  O15  1  0.00864  0.85997  0.27141  1
 O  O16  1  0.71277  0.12618  0.50002  1
 V  V1  1  0.00465  0.62669  0.74192  1
 V  V2  1  0.00465  0.62670  0.25808  1
 V  V3  1  0.74662  0.36865  -0.00000  1
 V  V4  1  0.50464  0.12669  0.24192  1
 V  V5  1  0.50465  0.12670  0.75808  1
 V  V6  1  0.24663  0.86867  0.50000  1
 Zn  Zn1  1  0.51449  0.49272  0.49999  1
 Zn  Zn2  1  0.01449  0.99271  -0.00002  1
 Zn  Zn3  1  -0.00028  0.25013  0.50000  1
 Zn  Zn4  1  0.49974  0.75012  0.00001  1
