CIF file written using JARVIS-Tools package.
data_Li4Mn3CoO8
_symmetry_space_group_name_H-M  'P-1'
_cell_length_a       4.96818
_cell_length_b       6.00726
_cell_length_c       5.26684
_cell_angle_alpha    68.1207
_cell_angle_beta     77.3555
_cell_angle_gamma    85.7391

_symmetry_Int_Tables_number  2
_chemical_formula_structural  Li4Mn3CoO8
_chemical_formula_sum  Li4Mn3CoO8
_cell_volume  142.3249841314658
_cell_formula_units_Z  1
loop_
  _symmetry_equiv_pos_site_id
 _symmetry_equiv_pos_as_xyz
 1  'x, y, z'
loop_
 _atom_site_type_symbol
 _atom_site_label
 _atom_site_symmetry_multiplicity
 _atom_site_fract_x
 _atom_site_fract_y
 _atom_site_fract_z
 _atom_site_fract_occupancy
 Co  Co1  1  -0.00000  0.00000  -0.00000  1
 Li  Li1  1  0.25321  0.88955  0.51521  1
 Li  Li2  1  0.74679  0.11045  0.48479  1
 Li  Li3  1  0.25120  0.37332  0.50716  1
 Li  Li4  1  0.74880  0.62668  0.49284  1
 Mn  Mn1  1  -0.00000  0.50000  0.00000  1
 Mn  Mn2  1  0.49920  0.24648  -0.00066  1
 Mn  Mn3  1  0.50080  0.75352  0.00066  1
 O  O1  1  0.12256  0.67908  0.20416  1
 O  O2  1  0.87744  0.32092  0.79584  1
 O  O3  1  0.63056  0.95447  0.23705  1
 O  O4  1  0.36945  0.04553  0.76296  1
 O  O5  1  0.13340  0.20317  0.23393  1
 O  O6  1  0.86660  0.79683  0.76607  1
 O  O7  1  0.64094  0.45825  0.24045  1
 O  O8  1  0.35906  0.54175  0.75955  1
