CIF file written using JARVIS-Tools package.
data_LiCo5O7F
_symmetry_space_group_name_H-M  'R3m'
_cell_length_a       5.68977
_cell_length_b       5.68977
_cell_length_c       9.88783
_cell_angle_alpha    73.446
_cell_angle_beta     90.3267
_cell_angle_gamma    60.3299

_symmetry_Int_Tables_number  160
_chemical_formula_structural  LiCo5O7F
_chemical_formula_sum  Li2Co0O4F2
_cell_volume  262.4360028905738
_cell_formula_units_Z  2
loop_
  _symmetry_equiv_pos_site_id
 _symmetry_equiv_pos_as_xyz
 1  'x, y, z'
loop_
 _atom_site_type_symbol
 _atom_site_label
 _atom_site_symmetry_multiplicity
 _atom_site_fract_x
 _atom_site_fract_y
 _atom_site_fract_z
 _atom_site_fract_occupancy
 Co  Co1  1  0.93524  0.61934  0.80967  1
 Co  Co2  1  0.43521  0.61932  0.30967  1
 Co  Co3  1  0.92899  0.12555  0.30966  1
 Co  Co4  1  0.68209  0.61936  0.06277  1
 Co  Co5  1  0.42901  0.12557  0.80967  1
 Co  Co6  1  0.43861  0.62574  0.81286  1
 Co  Co7  1  0.93858  0.62572  0.31287  1
 Co  Co8  1  0.86744  0.24494  0.62248  1
 Co  Co9  1  0.36740  0.24497  0.12247  1
 Co  Co10  1  0.18212  0.61933  0.56277  1
 F  F1  1  0.80959  0.87306  0.93651  1
 F  F2  1  0.30959  0.87303  0.43651  1
 Li  Li1  1  0.01274  0.00852  0.00425  1
 Li  Li2  1  0.51273  0.00845  0.50425  1
 O  O1  1  0.84763  0.86063  0.43034  1
 O  O2  1  0.79099  0.41731  0.93034  1
 O  O3  1  0.29099  0.41727  0.43034  1
 O  O4  1  0.56933  0.86068  0.70865  1
 O  O5  1  0.30530  0.38725  0.91804  1
 O  O6  1  0.07652  0.38434  0.69218  1
 O  O7  1  0.08092  0.83607  0.69362  1
 O  O8  1  0.58088  0.83609  0.19362  1
 O  O9  1  0.52972  0.38727  0.69363  1
 O  O10  1  0.02968  0.38728  0.19362  1
 O  O11  1  0.57649  0.38435  0.19217  1
 O  O12  1  0.80528  0.38723  0.41804  1
 O  O13  1  0.06930  0.86066  0.20865  1
 O  O14  1  0.34762  0.86067  0.93033  1
