CIF file written using JARVIS-Tools package.
data_Li2MnV3O8
_symmetry_space_group_name_H-M  'R3m'
_cell_length_a       5.7787
_cell_length_b       5.92151
_cell_length_c       10.0092
_cell_angle_alpha    106.364
_cell_angle_beta     89.9998
_cell_angle_gamma    60.7942

_symmetry_Int_Tables_number  160
_chemical_formula_structural  Li2MnV3O8
_chemical_formula_sum  Li4Mn2V6O6
_cell_volume  282.95686423979373
_cell_formula_units_Z  2
loop_
  _symmetry_equiv_pos_site_id
 _symmetry_equiv_pos_as_xyz
 1  'x, y, z'
loop_
 _atom_site_type_symbol
 _atom_site_label
 _atom_site_symmetry_multiplicity
 _atom_site_fract_x
 _atom_site_fract_y
 _atom_site_fract_z
 _atom_site_fract_occupancy
 Li  Li1  1  0.32025  0.35954  0.55993  1
 Li  Li2  1  0.82021  0.35954  0.05992  1
 Li  Li3  1  0.74570  0.50869  0.75144  1
 Li  Li4  1  0.24561  0.50869  0.25144  1
 Mn  Mn1  1  0.18861  0.62279  0.93714  1
 Mn  Mn2  1  0.68860  0.62279  0.43714  1
 O  O1  1  0.12079  0.75841  0.62640  1
 O  O2  1  0.60587  0.78826  0.64267  1
 O  O3  1  0.39237  0.21521  0.86920  1
 O  O4  1  0.89242  0.21521  0.36920  1
 O  O5  1  0.88889  0.22224  0.85842  1
 O  O6  1  0.38888  0.22224  0.35842  1
 O  O7  1  0.62081  0.75841  0.12640  1
 O  O8  1  0.15681  0.22221  0.12635  1
 O  O9  1  0.62093  0.22223  0.12635  1
 O  O10  1  0.37280  0.78825  0.87573  1
 O  O11  1  0.33894  0.78825  0.37573  1
 O  O12  1  0.83894  0.78830  0.87574  1
 O  O13  1  0.65683  0.22223  0.62636  1
 O  O14  1  0.12098  0.22221  0.62634  1
 O  O15  1  0.87276  0.78830  0.37574  1
 O  O16  1  0.10587  0.78826  0.14267  1
 V  V1  1  -0.00064  0.00128  0.51020  1
 V  V2  1  0.76431  0.00126  0.74521  1
 V  V3  1  0.23431  0.00133  0.74524  1
 V  V4  1  0.26437  0.00133  0.24525  1
 V  V5  1  0.73444  0.00126  0.24520  1
 V  V6  1  0.49934  0.00128  0.01020  1
