CIF file written using JARVIS-Tools package.
data_Li7Co5O12
_symmetry_space_group_name_H-M  'P2/m'
_cell_length_a       2.83246
_cell_length_b       4.93043
_cell_length_c       13.9408
_cell_angle_alpha    89.4038
_cell_angle_beta     90.013
_cell_angle_gamma    90.0124

_symmetry_Int_Tables_number  10
_chemical_formula_structural  Li7Co5O12
_chemical_formula_sum  Li7Co5O2
_cell_volume  194.67565664765962
_cell_formula_units_Z  1
loop_
  _symmetry_equiv_pos_site_id
 _symmetry_equiv_pos_as_xyz
 1  'x, y, z'
loop_
 _atom_site_type_symbol
 _atom_site_label
 _atom_site_symmetry_multiplicity
 _atom_site_fract_x
 _atom_site_fract_y
 _atom_site_fract_z
 _atom_site_fract_occupancy
 Co  Co1  1  -0.00017  0.34057  0.16266  1
 Co  Co2  1  0.00017  0.65943  0.83734  1
 Co  Co3  1  0.50011  0.82925  0.66644  1
 Co  Co4  1  0.49989  0.17075  0.33356  1
 Co  Co5  1  -0.00000  0.00000  0.50000  1
 Li  Li1  1  0.50000  0.50000  0.00000  1
 Li  Li2  1  0.00000  0.00000  0.00000  1
 Li  Li3  1  0.00011  0.32825  0.66990  1
 Li  Li4  1  0.50000  0.50000  0.50000  1
 Li  Li5  1  -0.00011  0.67175  0.33010  1
 Li  Li6  1  0.50004  0.83072  0.16182  1
 Li  Li7  1  0.49996  0.16928  0.83818  1
 O  O1  1  0.49986  0.86287  0.42043  1
 O  O2  1  -0.00022  0.03515  0.25625  1
 O  O3  1  0.49972  0.18334  0.09372  1
 O  O4  1  0.00022  0.96485  0.74375  1
 O  O5  1  0.50014  0.13713  0.57957  1
 O  O6  1  0.49993  0.47349  0.24732  1
 O  O7  1  -0.00008  0.64837  0.09107  1
 O  O8  1  0.50028  0.81666  0.90628  1
 O  O9  1  0.50007  0.52651  0.75268  1
 O  O10  1  0.00000  0.69102  0.58603  1
 O  O11  1  -0.00000  0.30898  0.41397  1
 O  O12  1  0.00008  0.35163  0.90893  1
