CIF file written using JARVIS-Tools package.
data_Li7Co5O12
_symmetry_space_group_name_H-M  'P-1'
_cell_length_a       4.92535
_cell_length_b       5.66747
_cell_length_c       7.48181
_cell_angle_alpha    100.936
_cell_angle_beta     109.137
_cell_angle_gamma    89.9903

_symmetry_Int_Tables_number  2
_chemical_formula_structural  Li7Co5O12
_chemical_formula_sum  Li7Co5O2
_cell_volume  193.29032363877127
_cell_formula_units_Z  1
loop_
  _symmetry_equiv_pos_site_id
 _symmetry_equiv_pos_as_xyz
 1  'x, y, z'
loop_
 _atom_site_type_symbol
 _atom_site_label
 _atom_site_symmetry_multiplicity
 _atom_site_fract_x
 _atom_site_fract_y
 _atom_site_fract_z
 _atom_site_fract_occupancy
 Co  Co1  1  0.00298  0.16982  0.67055  1
 Co  Co2  1  0.00000  0.00000  0.00000  1
 Co  Co3  1  0.99702  0.83018  0.32945  1
 Co  Co4  1  0.99729  0.33439  0.32980  1
 Co  Co5  1  0.00271  0.66561  0.67020  1
 Li  Li1  1  0.00000  0.50000  -0.00000  1
 Li  Li2  1  0.50040  0.26109  0.99985  1
 Li  Li3  1  0.49162  0.08246  0.33086  1
 Li  Li4  1  0.50838  0.91754  0.66914  1
 Li  Li5  1  0.49960  0.73891  0.00015  1
 Li  Li6  1  0.51446  0.41844  0.67562  1
 Li  Li7  1  0.48554  0.58156  0.32438  1
 O  O1  1  0.22094  0.95695  0.82819  1
 O  O2  1  0.21640  0.62304  0.49040  1
 O  O3  1  0.23144  0.45386  0.81425  1
 O  O4  1  0.78360  0.37696  0.50960  1
 O  O5  1  0.78577  0.87762  0.50860  1
 O  O6  1  0.76856  0.54614  0.18575  1
 O  O7  1  0.77610  0.19423  0.83231  1
 O  O8  1  0.77906  0.04305  0.17181  1
 O  O9  1  0.22356  0.27816  0.16803  1
 O  O10  1  0.21423  0.12238  0.49140  1
 O  O11  1  0.77644  0.72184  0.83197  1
 O  O12  1  0.22390  0.80577  0.16769  1
