CIF file written using JARVIS-Tools package.
data_Li4Co3O7
_symmetry_space_group_name_H-M  'C2/m'
_cell_length_a       10.219
_cell_length_b       10.219
_cell_length_c       4.92537
_cell_angle_alpha    85.4469
_cell_angle_beta     85.4469
_cell_angle_gamma    152.246

_symmetry_Int_Tables_number  12
_chemical_formula_structural  Li4Co3O7
_chemical_formula_sum  Li8Co6O4
_cell_volume  226.0220476080974
_cell_formula_units_Z  2
loop_
  _symmetry_equiv_pos_site_id
 _symmetry_equiv_pos_as_xyz
 1  'x, y, z'
loop_
 _atom_site_type_symbol
 _atom_site_label
 _atom_site_symmetry_multiplicity
 _atom_site_fract_x
 _atom_site_fract_y
 _atom_site_fract_z
 _atom_site_fract_occupancy
 Co  Co1  1  0.35871  0.64129  0.00000  1
 Co  Co2  1  0.92981  0.07019  0.00000  1
 Co  Co3  1  0.07019  0.92981  0.00000  1
 Co  Co4  1  0.64129  0.35871  -0.00000  1
 Co  Co5  1  0.78601  0.21399  -0.00000  1
 Co  Co6  1  0.21399  0.78601  0.00000  1
 Li  Li1  1  0.50000  0.50000  0.00000  1
 Li  Li2  1  0.85876  0.14124  0.50000  1
 Li  Li3  1  -0.00000  -0.00000  0.50000  1
 Li  Li4  1  0.56746  0.43254  0.50000  1
 Li  Li5  1  0.14124  0.85876  0.50000  1
 Li  Li6  1  0.71338  0.28662  0.50000  1
 Li  Li7  1  0.28662  0.71338  0.50000  1
 Li  Li8  1  0.43254  0.56746  0.50000  1
 O  O1  1  0.21961  0.21961  0.77097  1
 O  O2  1  0.61654  0.90238  0.21859  1
 O  O3  1  0.04552  0.47500  0.21806  1
 O  O4  1  0.47500  0.04552  0.21806  1
 O  O5  1  0.90238  0.61654  0.21859  1
 O  O6  1  0.78039  0.78039  0.22903  1
 O  O7  1  0.52500  0.95448  0.78194  1
 O  O8  1  0.09762  0.38346  0.78141  1
 O  O9  1  0.95448  0.52500  0.78194  1
 O  O10  1  0.38346  0.09762  0.78141  1
 O  O11  1  0.82695  0.67423  0.77536  1
 O  O12  1  0.32577  0.17305  0.22464  1
 O  O13  1  0.17305  0.32577  0.22464  1
 O  O14  1  0.67423  0.82695  0.77536  1
