CIF file written using JARVIS-Tools package.
data_MgH2C3O4
_symmetry_space_group_name_H-M  'P1'
_cell_length_a       4.26465
_cell_length_b       6.01089
_cell_length_c       8.12632
_cell_angle_alpha    69.3719
_cell_angle_beta     77.372
_cell_angle_gamma    90.5521

_symmetry_Int_Tables_number  1
_chemical_formula_structural  MgH2C3O4
_chemical_formula_sum  Mg2H4C6O8
_cell_volume  189.38332211963302
_cell_formula_units_Z  2
loop_
  _symmetry_equiv_pos_site_id
 _symmetry_equiv_pos_as_xyz
 1  'x, y, z'
loop_
 _atom_site_type_symbol
 _atom_site_label
 _atom_site_symmetry_multiplicity
 _atom_site_fract_x
 _atom_site_fract_y
 _atom_site_fract_z
 _atom_site_fract_occupancy
 C  C1  1  0.25622  0.57197  0.28173  1
 C  C2  1  0.87034  0.77835  0.71007  1
 C  C3  1  0.43948  0.81217  0.16405  1
 C  C4  1  0.74350  0.58329  0.65807  1
 C  C5  1  0.55063  0.95324  0.26588  1
 C  C6  1  0.51387  0.39818  0.81499  1
 H  H1  1  0.62086  0.65210  0.54831  1
 H  H2  1  0.28423  0.92067  0.08211  1
 H  H3  1  0.95326  0.49856  0.60959  1
 H  H4  1  0.65239  0.78657  0.07116  1
 Mg  Mg1  1  0.35800  0.11540  0.58864  1
 Mg  Mg2  1  0.98041  0.40077  0.04043  1
 O  O1  1  0.31628  0.25930  0.79141  1
 O  O2  1  0.50420  0.39638  0.97545  1
 O  O3  1  0.35094  0.44576  0.42064  1
 O  O4  1  0.79786  -0.00697  0.64828  1
 O  O5  1  0.82333  0.07418  0.19620  1
 O  O6  1  0.07257  0.72666  0.81158  1
 O  O7  1  0.36443  0.94718  0.41315  1
 O  O8  1  0.01600  0.50634  0.23596  1
