CIF file written using JARVIS-Tools package.
data_LaMnZnFeO6
_symmetry_space_group_name_H-M  'Pc'
_cell_length_a       5.47307
_cell_length_b       5.27294
_cell_length_c       7.5363
_cell_angle_alpha    89.9679
_cell_angle_beta     90.0005
_cell_angle_gamma    89.9979

_symmetry_Int_Tables_number  7
_chemical_formula_structural  LaMnZnFeO6
_chemical_formula_sum  La2Mn2Zn2Fe2O2
_cell_volume  217.49141808627576
_cell_formula_units_Z  2
loop_
  _symmetry_equiv_pos_site_id
 _symmetry_equiv_pos_as_xyz
 1  'x, y, z'
loop_
 _atom_site_type_symbol
 _atom_site_label
 _atom_site_symmetry_multiplicity
 _atom_site_fract_x
 _atom_site_fract_y
 _atom_site_fract_z
 _atom_site_fract_occupancy
 Fe  Fe1  1  0.50099  0.00068  0.00043  1
 Fe  Fe2  1  0.99900  0.50057  0.50042  1
 La  La1  1  0.00527  0.99184  0.25002  1
 La  La2  1  0.49470  0.49216  0.75002  1
 Mn  Mn1  1  0.50067  0.00058  0.49989  1
 Mn  Mn2  1  0.99933  0.50050  -0.00011  1
 O  O1  1  0.00190  0.63991  0.75499  1
 O  O2  1  0.73676  0.72822  0.05541  1
 O  O3  1  0.22887  0.21936  0.55514  1
 O  O4  1  0.27117  0.71930  0.05513  1
 O  O5  1  0.22405  0.22681  0.94438  1
 O  O6  1  0.49810  0.13989  0.25498  1
 O  O7  1  0.76768  0.23572  0.94418  1
 O  O8  1  0.76326  0.22824  0.55541  1
 O  O9  1  0.27592  0.72681  0.44444  1
 O  O10  1  0.73228  0.73564  0.44420  1
 O  O11  1  0.50300  0.92767  0.74525  1
 O  O12  1  0.99705  0.42750  0.24525  1
 Zn  Zn1  1  0.99638  0.02930  0.75028  1
 Zn  Zn2  1  0.50362  0.52928  0.25027  1
