CIF file written using JARVIS-Tools package.
data_ZrH2C3O4
_symmetry_space_group_name_H-M  'P1'
_cell_length_a       4.38098
_cell_length_b       4.57515
_cell_length_c       5.8413
_cell_angle_alpha    85.1078
_cell_angle_beta     77.9444
_cell_angle_gamma    69.6939

_symmetry_Int_Tables_number  1
_chemical_formula_structural  ZrH2C3O4
_chemical_formula_sum  ZrH2C3O4
_cell_volume  107.37214678854488
_cell_formula_units_Z  1
loop_
  _symmetry_equiv_pos_site_id
 _symmetry_equiv_pos_as_xyz
 1  'x, y, z'
loop_
 _atom_site_type_symbol
 _atom_site_label
 _atom_site_symmetry_multiplicity
 _atom_site_fract_x
 _atom_site_fract_y
 _atom_site_fract_z
 _atom_site_fract_occupancy
 C  C1  1  0.05848  0.47173  0.35128  1
 C  C2  1  0.02392  0.59336  0.09843  1
 C  C3  1  0.04906  0.36094  0.92300  1
 H  H1  1  0.22274  0.69237  0.03313  1
 H  H2  1  0.78026  0.77634  0.10900  1
 O  O1  1  -0.00227  0.75054  0.47929  1
 O  O2  1  0.39182  0.28463  0.35445  1
 O  O3  1  0.32437  0.14715  0.84381  1
 O  O4  1  0.78611  0.38549  0.85048  1
 Zr  Zr1  1  0.72150  0.17580  0.55446  1
