CIF file written using JARVIS-Tools package.
data_MgH6C5O4
_symmetry_space_group_name_H-M  'P1'
_cell_length_a       4.7771
_cell_length_b       6.16853
_cell_length_c       8.83814
_cell_angle_alpha    98.7871
_cell_angle_beta     90.9539
_cell_angle_gamma    96.6091

_symmetry_Int_Tables_number  1
_chemical_formula_structural  MgH6C5O4
_chemical_formula_sum  Mg2H2C0O8
_cell_volume  255.51708942195887
_cell_formula_units_Z  2
loop_
  _symmetry_equiv_pos_site_id
 _symmetry_equiv_pos_as_xyz
 1  'x, y, z'
loop_
 _atom_site_type_symbol
 _atom_site_label
 _atom_site_symmetry_multiplicity
 _atom_site_fract_x
 _atom_site_fract_y
 _atom_site_fract_z
 _atom_site_fract_occupancy
 C  C1  1  0.71178  0.27462  0.10688  1
 C  C2  1  0.80394  0.30503  0.54661  1
 C  C3  1  0.65860  0.27612  0.38999  1
 C  C4  1  0.81832  0.18933  0.24926  1
 C  C5  1  0.21177  0.77462  0.10688  1
 C  C6  1  0.30394  0.80503  0.54661  1
 C  C7  1  0.31831  0.68933  0.24926  1
 C  C8  1  0.82509  0.17084  0.95781  1
 C  C9  1  0.32506  0.67084  0.95780  1
 C  C10  1  0.15860  0.77612  0.38999  1
 H  H1  1  0.77523  0.45321  0.11784  1
 H  H2  1  0.45378  0.17717  0.39564  1
 H  H3  1  0.48126  0.24947  0.09723  1
 H  H4  1  0.98125  0.74948  0.09723  1
 H  H5  1  0.60158  0.44178  0.38255  1
 H  H6  1  0.95379  0.67716  0.39564  1
 H  H7  1  0.28912  0.50849  0.22952  1
 H  H8  1  0.78912  0.00849  0.22952  1
 H  H9  1  0.54536  0.74038  0.26867  1
 H  H10  1  0.04536  0.24038  0.26867  1
 H  H11  1  0.10157  0.94178  0.38255  1
 H  H12  1  0.27522  0.95321  0.11783  1
 Mg  Mg1  1  0.79859  0.72921  0.75387  1
 Mg  Mg2  1  0.29860  0.22921  0.75386  1
 O  O1  1  0.15730  0.88472  0.66016  1
 O  O2  1  0.55584  0.76909  0.56256  1
 O  O3  1  0.05584  0.26910  0.56256  1
 O  O4  1  0.15388  0.57876  0.84714  1
 O  O5  1  0.65392  0.07872  0.84714  1
 O  O6  1  0.59110  0.67572  0.94665  1
 O  O7  1  0.09113  0.17576  0.94665  1
 O  O8  1  0.65729  0.38470  0.66017  1
