CIF file written using JARVIS-Tools package.
data_Sr3CaFe4O12
_symmetry_space_group_name_H-M  'Pm'
_cell_length_a       5.3898
_cell_length_b       7.59884
_cell_length_c       5.39075
_cell_angle_alpha    89.997
_cell_angle_beta     89.726
_cell_angle_gamma    89.9992

_symmetry_Int_Tables_number  6
_chemical_formula_structural  Sr3CaFe4O12
_chemical_formula_sum  Sr3CaFe4O2
_cell_volume  220.78197977680938
_cell_formula_units_Z  1
loop_
  _symmetry_equiv_pos_site_id
 _symmetry_equiv_pos_as_xyz
 1  'x, y, z'
loop_
 _atom_site_type_symbol
 _atom_site_label
 _atom_site_symmetry_multiplicity
 _atom_site_fract_x
 _atom_site_fract_y
 _atom_site_fract_z
 _atom_site_fract_occupancy
 Ca  Ca1  1  0.00344  0.25001  0.00327  1
 Fe  Fe1  1  0.00019  0.49808  0.49989  1
 Fe  Fe2  1  0.49992  0.00192  0.00022  1
 Fe  Fe3  1  0.00019  0.00191  0.49989  1
 Fe  Fe4  1  0.49992  0.49809  0.00022  1
 O  O1  1  0.75724  0.47850  0.75724  1
 O  O2  1  0.47543  0.25000  0.01544  1
 O  O3  1  0.74930  0.49730  0.25042  1
 O  O4  1  0.01426  0.25000  0.47365  1
 O  O5  1  0.51372  0.74999  0.98340  1
 O  O6  1  0.98460  0.74999  0.51483  1
 O  O7  1  0.25018  0.49594  0.74951  1
 O  O8  1  0.74925  0.00269  0.25048  1
 O  O9  1  0.24801  0.51349  0.24802  1
 O  O10  1  0.25024  0.00406  0.74946  1
 O  O11  1  0.75731  0.02152  0.75730  1
 O  O12  1  0.24795  0.98650  0.24797  1
 Sr  Sr1  1  0.99966  0.75001  -0.00029  1
 Sr  Sr2  1  0.50047  0.25000  0.50041  1
 Sr  Sr3  1  0.49872  0.74999  0.49870  1
