CIF file written using JARVIS-Tools package.
data_ZrH6C5O4
_symmetry_space_group_name_H-M  'P1'
_cell_length_a       4.02396
_cell_length_b       4.73447
_cell_length_c       8.43206
_cell_angle_alpha    93.9501
_cell_angle_beta     96.8916
_cell_angle_gamma    115.146

_symmetry_Int_Tables_number  1
_chemical_formula_structural  ZrH6C5O4
_chemical_formula_sum  ZrH6C5O4
_cell_volume  143.07705539213896
_cell_formula_units_Z  1
loop_
  _symmetry_equiv_pos_site_id
 _symmetry_equiv_pos_as_xyz
 1  'x, y, z'
loop_
 _atom_site_type_symbol
 _atom_site_label
 _atom_site_symmetry_multiplicity
 _atom_site_fract_x
 _atom_site_fract_y
 _atom_site_fract_z
 _atom_site_fract_occupancy
 C  C1  1  0.04334  0.59747  0.48801  1
 C  C2  1  0.86792  0.53042  0.63883  1
 C  C3  1  0.26645  0.57229  0.09161  1
 C  C4  1  0.06458  0.44229  0.78333  1
 C  C5  1  0.12085  0.66225  0.93657  1
 H  H1  1  0.44119  0.10938  0.01595  1
 H  H2  1  0.84622  0.64534  0.95440  1
 H  H3  1  0.59588  0.32757  0.59671  1
 H  H4  1  0.81681  0.73351  0.67677  1
 H  H5  1  0.33533  0.46120  0.76322  1
 H  H6  1  0.89758  0.19993  0.80301  1
 O  O1  1  0.55650  0.26795  0.27386  1
 O  O2  1  0.07983  0.85854  0.44192  1
 O  O3  1  0.35518  0.97648  0.91048  1
 O  O4  1  0.59172  0.77319  0.15367  1
 Zr  Zr1  1  0.03078  0.19889  0.28894  1
