CIF file written using JARVIS-Tools package.
data_ZrH6C5O4
_symmetry_space_group_name_H-M  'P1'
_cell_length_a       3.45372
_cell_length_b       4.81792
_cell_length_c       9.10531
_cell_angle_alpha    106.208
_cell_angle_beta     90.9104
_cell_angle_gamma    98.5583

_symmetry_Int_Tables_number  1
_chemical_formula_structural  ZrH6C5O4
_chemical_formula_sum  ZrH6C5O4
_cell_volume  143.6050122761832
_cell_formula_units_Z  1
loop_
  _symmetry_equiv_pos_site_id
 _symmetry_equiv_pos_as_xyz
 1  'x, y, z'
loop_
 _atom_site_type_symbol
 _atom_site_label
 _atom_site_symmetry_multiplicity
 _atom_site_fract_x
 _atom_site_fract_y
 _atom_site_fract_z
 _atom_site_fract_occupancy
 C  C1  1  0.52143  0.86469  0.50756  1
 C  C2  1  0.67776  0.98561  0.67035  1
 C  C3  1  0.13205  0.73992  0.94227  1
 C  C4  1  0.83384  0.31231  0.72288  1
 C  C5  1  0.97711  0.41622  0.89226  1
 H  H1  1  0.75640  0.35574  0.96828  1
 H  H2  1  0.22326  0.30453  0.91017  1
 H  H3  1  0.90515  0.85775  0.68733  1
 H  H4  1  0.45166  0.92373  0.74575  1
 H  H5  1  0.60264  0.43441  0.70522  1
 H  H6  1  0.07003  0.36905  0.65237  1
 O  O1  1  0.59906  0.01725  0.40972  1
 O  O2  1  0.30497  0.61607  0.46707  1
 O  O3  1  0.10764  0.86000  0.08529  1
 O  O4  1  0.70026  0.34329  0.21709  1
 Zr  Zr1  1  0.17149  0.20774  0.27868  1
