CIF file written using JARVIS-Tools package.
data_Li4MnCo2O7
_symmetry_space_group_name_H-M  'Cm'
_cell_length_a       2.84157
_cell_length_b       7.56665
_cell_length_c       11.0976
_cell_angle_alpha    80.8731
_cell_angle_beta     82.6312
_cell_angle_gamma    79.1502

_symmetry_Int_Tables_number  8
_chemical_formula_structural  Li4MnCo2O7
_chemical_formula_sum  Li8Mn2Co4O4
_cell_volume  230.18576391385812
_cell_formula_units_Z  2
loop_
  _symmetry_equiv_pos_site_id
 _symmetry_equiv_pos_as_xyz
 1  'x, y, z'
loop_
 _atom_site_type_symbol
 _atom_site_label
 _atom_site_symmetry_multiplicity
 _atom_site_fract_x
 _atom_site_fract_y
 _atom_site_fract_z
 _atom_site_fract_occupancy
 Co  Co1  1  0.42810  0.28536  0.85849  1
 Co  Co2  1  0.28607  0.85607  0.57173  1
 Co  Co3  1  0.85842  0.56906  0.71409  1
 Co  Co4  1  0.57389  0.70905  0.14334  1
 Li  Li1  1  0.13746  0.43962  0.28583  1
 Li  Li2  1  0.64808  0.92427  0.77918  1
 Li  Li3  1  0.77228  0.36287  0.09325  1
 Li  Li4  1  0.35236  0.07510  0.22053  1
 Li  Li5  1  0.21808  0.63369  0.93011  1
 Li  Li6  1  0.06972  0.21703  0.64329  1
 Li  Li7  1  0.93702  0.77527  0.35038  1
 Li  Li8  1  0.50415  0.51027  0.48132  1
 Mn  Mn1  1  0.00103  0.99817  -0.00027  1
 Mn  Mn2  1  0.71200  0.15122  0.42463  1
 O  O1  1  0.59969  0.83388  0.96707  1
 O  O2  1  0.45305  0.40168  0.69253  1
 O  O3  1  0.30927  0.97619  0.40553  1
 O  O4  1  0.16883  0.55454  0.10832  1
 O  O5  1  0.26216  0.73641  0.73890  1
 O  O6  1  0.11482  0.30497  0.46488  1
 O  O7  1  0.68843  0.02326  0.59945  1
 O  O8  1  0.83392  0.44995  0.88192  1
 O  O9  1  0.53540  0.61979  0.30945  1
 O  O10  1  0.40238  0.16632  0.02851  1
 O  O11  1  0.88166  0.68928  0.54773  1
 O  O12  1  0.75006  0.23584  0.26394  1
 O  O13  1  0.97493  0.88522  0.16467  1
 O  O14  1  0.02675  0.11564  0.83123  1
