CIF file written using JARVIS-Tools package.
data_V2FeO4
_symmetry_space_group_name_H-M  'Imm2'
_cell_length_a       5.84001
_cell_length_b       5.79943
_cell_length_c       5.82475
_cell_angle_alpha    120.154
_cell_angle_beta     89.994
_cell_angle_gamma    120.233

_symmetry_Int_Tables_number  44
_chemical_formula_structural  V2FeO4
_chemical_formula_sum  V4Fe2O8
_cell_volume  138.68217997361467
_cell_formula_units_Z  2
loop_
  _symmetry_equiv_pos_site_id
 _symmetry_equiv_pos_as_xyz
 1  'x, y, z'
loop_
 _atom_site_type_symbol
 _atom_site_label
 _atom_site_symmetry_multiplicity
 _atom_site_fract_x
 _atom_site_fract_y
 _atom_site_fract_z
 _atom_site_fract_occupancy
 Fe  Fe1  1  0.62455  0.74894  0.87452  1
 Fe  Fe2  1  0.37585  0.25156  0.12588  1
 O  O1  1  0.23998  0.49651  0.74816  1
 O  O2  1  0.23746  0.51149  0.25568  1
 O  O3  1  0.24405  0.98822  0.72644  1
 O  O4  1  0.24399  0.98804  0.26178  1
 O  O5  1  0.75197  0.00403  0.26025  1
 O  O6  1  0.75182  0.00382  0.74374  1
 O  O7  1  0.77420  0.51167  0.25581  1
 O  O8  1  0.75650  0.49628  0.74811  1
 V  V1  1  -0.00527  0.48936  0.98289  1
 V  V2  1  0.99487  0.48965  0.50644  1
 V  V3  1  -0.00572  0.01035  0.50522  1
 V  V4  1  0.51575  0.01007  0.50507  1
