CIF file written using JARVIS-Tools package.
data_LiI2
_symmetry_space_group_name_H-M  'P-1'
_cell_length_a       4.24756
_cell_length_b       9.82502
_cell_length_c       3.28286
_cell_angle_alpha    131.044
_cell_angle_beta     112.615
_cell_angle_gamma    79.5095

_symmetry_Int_Tables_number  2
_chemical_formula_structural  LiI2
_chemical_formula_sum  LiI2
_cell_volume  94.89323560927978
_cell_formula_units_Z  1
loop_
  _symmetry_equiv_pos_site_id
 _symmetry_equiv_pos_as_xyz
 1  'x, y, z'
loop_
 _atom_site_type_symbol
 _atom_site_label
 _atom_site_symmetry_multiplicity
 _atom_site_fract_x
 _atom_site_fract_y
 _atom_site_fract_z
 _atom_site_fract_occupancy
 I  I1  1  0.69187  0.18392  0.66386  1
 I  I2  1  0.37082  0.67649  0.00424  1
 Li  Li1  1  0.03138  0.93022  -0.16565  1
