CIF file written using JARVIS-Tools package.
data_LiI2
_symmetry_space_group_name_H-M  'Pmmm'
_cell_length_a       3.32185
_cell_length_b       6.00179
_cell_length_c       4.82649
_cell_angle_alpha    90.0061
_cell_angle_beta     89.9985
_cell_angle_gamma    89.9973

_symmetry_Int_Tables_number  47
_chemical_formula_structural  LiI2
_chemical_formula_sum  LiI2
_cell_volume  96.22592029131592
_cell_formula_units_Z  1
loop_
  _symmetry_equiv_pos_site_id
 _symmetry_equiv_pos_as_xyz
 1  'x, y, z'
loop_
 _atom_site_type_symbol
 _atom_site_label
 _atom_site_symmetry_multiplicity
 _atom_site_fract_x
 _atom_site_fract_y
 _atom_site_fract_z
 _atom_site_fract_occupancy
 I  I1  1  0.43587  0.93584  0.37836  1
 I  I2  1  0.93636  0.43591  0.87837  1
 Li  Li1  1  0.93591  0.93607  0.87837  1
