CIF file written using JARVIS-Tools package.
data_ZrH6C5O4
_symmetry_space_group_name_H-M  'P1'
_cell_length_a       3.55514
_cell_length_b       4.33137
_cell_length_c       8.6278
_cell_angle_alpha    79.9172
_cell_angle_beta     82.5204
_cell_angle_gamma    69.3256

_symmetry_Int_Tables_number  1
_chemical_formula_structural  ZrH6C5O4
_chemical_formula_sum  ZrH6C5O4
_cell_volume  122.04351741317441
_cell_formula_units_Z  1
loop_
  _symmetry_equiv_pos_site_id
 _symmetry_equiv_pos_as_xyz
 1  'x, y, z'
loop_
 _atom_site_type_symbol
 _atom_site_label
 _atom_site_symmetry_multiplicity
 _atom_site_fract_x
 _atom_site_fract_y
 _atom_site_fract_z
 _atom_site_fract_occupancy
 C  C1  1  0.47791  0.64269  0.48333  1
 C  C2  1  0.66268  0.61300  0.63742  1
 C  C3  1  0.82888  0.14411  0.04791  1
 C  C4  1  0.48203  0.49348  0.80029  1
 C  C5  1  0.75556  0.15777  0.87891  1
 H  H1  1  0.63335  0.95861  0.88067  1
 H  H2  1  0.04735  0.08104  0.81203  1
 H  H3  1  0.69315  0.85524  0.63958  1
 H  H4  1  0.97002  0.43767  0.62149  1
 H  H5  1  0.18319  0.48665  0.79390  1
 H  H6  1  0.43719  0.67011  0.88248  1
 O  O1  1  0.73486  0.74638  0.34909  1
 O  O2  1  0.49856  0.31739  0.45725  1
 O  O3  1  0.16728  0.95515  0.09815  1
 O  O4  1  0.57187  0.31796  0.14657  1
 Zr  Zr1  1  0.11943  0.11682  0.33160  1
