CIF file written using JARVIS-Tools package.
data_Li5Mn3O8
_symmetry_space_group_name_H-M  'P-1'
_cell_length_a       5.01477
_cell_length_b       4.91946
_cell_length_c       5.68593
_cell_angle_alpha    89.9497
_cell_angle_beta     106.679
_cell_angle_gamma    99.523

_symmetry_Int_Tables_number  2
_chemical_formula_structural  Li5Mn3O8
_chemical_formula_sum  Li5Mn3O8
_cell_volume  132.35711451377287
_cell_formula_units_Z  1
loop_
  _symmetry_equiv_pos_site_id
 _symmetry_equiv_pos_as_xyz
 1  'x, y, z'
loop_
 _atom_site_type_symbol
 _atom_site_label
 _atom_site_symmetry_multiplicity
 _atom_site_fract_x
 _atom_site_fract_y
 _atom_site_fract_z
 _atom_site_fract_occupancy
 Li  Li1  1  0.49435  0.24132  0.86809  1
 Li  Li2  1  0.50565  0.75869  0.13191  1
 Li  Li3  1  0.49564  0.76152  0.61830  1
 Li  Li4  1  0.50436  0.23848  0.38170  1
 Li  Li5  1  0.00000  -0.00000  0.50000  1
 Mn  Mn1  1  0.00000  -0.00000  -0.00000  1
 Mn  Mn2  1  0.00050  0.49957  0.25674  1
 Mn  Mn3  1  -0.00050  0.50043  0.74326  1
 O  O1  1  0.22547  0.86116  0.82035  1
 O  O2  1  0.22260  0.36694  0.05557  1
 O  O3  1  0.23111  0.39294  0.55917  1
 O  O4  1  0.22823  0.86270  0.29428  1
 O  O5  1  0.77740  0.63306  0.94443  1
 O  O6  1  0.77453  0.13884  0.17965  1
 O  O7  1  0.77177  0.13730  0.70572  1
 O  O8  1  0.76889  0.60706  0.44083  1
