CIF file written using JARVIS-Tools package.
data_Li7Mn2Co3O12
_symmetry_space_group_name_H-M  'P1'
_cell_length_a       5.64949
_cell_length_b       6.38324
_cell_length_c       6.40348
_cell_angle_alpha    71.9504
_cell_angle_beta     63.7019
_cell_angle_gamma    77.2629

_symmetry_Int_Tables_number  1
_chemical_formula_structural  Li7Mn2Co3O12
_chemical_formula_sum  Li7Mn2Co3O2
_cell_volume  195.89436274293783
_cell_formula_units_Z  1
loop_
  _symmetry_equiv_pos_site_id
 _symmetry_equiv_pos_as_xyz
 1  'x, y, z'
loop_
 _atom_site_type_symbol
 _atom_site_label
 _atom_site_symmetry_multiplicity
 _atom_site_fract_x
 _atom_site_fract_y
 _atom_site_fract_z
 _atom_site_fract_occupancy
 Co  Co1  1  0.49718  0.00238  0.99914  1
 Co  Co2  1  0.83318  0.33305  0.66685  1
 Co  Co3  1  0.66504  0.66428  0.33542  1
 Li  Li1  1  0.34038  0.33327  0.66700  1
 Li  Li2  1  0.41628  0.65584  0.82432  1
 Li  Li3  1  0.58256  0.33118  0.16910  1
 Li  Li4  1  0.08402  0.33508  0.16432  1
 Li  Li5  1  0.92265  0.65066  0.83765  1
 Li  Li6  1  0.73112  0.01819  0.50759  1
 Li  Li7  1  0.25705  0.00954  0.49589  1
 Mn  Mn1  1  0.00389  0.00826  0.99268  1
 Mn  Mn2  1  0.16988  0.65778  0.34002  1
 O  O1  1  0.63773  0.98649  0.23328  1
 O  O2  1  0.48086  0.31589  0.90881  1
 O  O3  1  0.29638  0.67320  0.55878  1
 O  O4  1  0.71418  0.35029  0.42504  1
 O  O5  1  0.52910  0.67840  0.10322  1
 O  O6  1  0.03027  0.68116  0.09719  1
 O  O7  1  0.19467  0.35143  0.41865  1
 O  O8  1  0.86143  0.01315  0.76675  1
 O  O9  1  0.95584  0.31569  0.91388  1
 O  O10  1  0.80403  0.65332  0.56735  1
 O  O11  1  0.36081  0.99310  0.77391  1
 O  O12  1  0.13147  0.98836  0.23316  1
