CIF file written using JARVIS-Tools package.
data_LiI2
_symmetry_space_group_name_H-M  'Pmmm'
_cell_length_a       4.43126
_cell_length_b       4.37891
_cell_length_c       6.55495
_cell_angle_alpha    90
_cell_angle_beta     89.8778
_cell_angle_gamma    90

_symmetry_Int_Tables_number  47
_chemical_formula_structural  LiI2
_chemical_formula_sum  LiI2
_cell_volume  127.19295726134317
_cell_formula_units_Z  1
loop_
  _symmetry_equiv_pos_site_id
 _symmetry_equiv_pos_as_xyz
 1  'x, y, z'
loop_
 _atom_site_type_symbol
 _atom_site_label
 _atom_site_symmetry_multiplicity
 _atom_site_fract_x
 _atom_site_fract_y
 _atom_site_fract_z
 _atom_site_fract_occupancy
 I  I1  1  -0.03294  0.00000  -0.12120  1
 I  I2  1  -0.03377  0.00000  0.38785  1
 Li  Li1  1  0.46671  0.00000  0.13335  1
