CIF file written using JARVIS-Tools package.
data_Li7Mn4CoO12
_symmetry_space_group_name_H-M  'Pm'
_cell_length_a       2.84597
_cell_length_b       14.2875
_cell_length_c       4.93081
_cell_angle_alpha    90.5246
_cell_angle_beta     90.0268
_cell_angle_gamma    89.9293

_symmetry_Int_Tables_number  6
_chemical_formula_structural  Li7Mn4CoO12
_chemical_formula_sum  Li7Mn4CoO2
_cell_volume  200.4879022232198
_cell_formula_units_Z  1
loop_
  _symmetry_equiv_pos_site_id
 _symmetry_equiv_pos_as_xyz
 1  'x, y, z'
loop_
 _atom_site_type_symbol
 _atom_site_label
 _atom_site_symmetry_multiplicity
 _atom_site_fract_x
 _atom_site_fract_y
 _atom_site_fract_z
 _atom_site_fract_occupancy
 Co  Co1  1  0.99946  0.33344  0.33699  1
 Li  Li1  1  0.50003  0.66584  0.16577  1
 Li  Li2  1  0.49909  0.81932  0.83051  1
 Li  Li3  1  0.00112  0.52028  0.02572  1
 Li  Li4  1  0.00003  0.16833  0.66506  1
 Li  Li5  1  -0.00104  0.81128  0.30762  1
 Li  Li6  1  0.50094  0.51124  0.49938  1
 Li  Li7  1  0.50002  0.16984  0.17150  1
 Mn  Mn1  1  0.00048  0.00048  -0.00303  1
 Mn  Mn2  1  0.00004  0.66561  0.66581  1
 Mn  Mn3  1  0.49945  0.33435  0.83837  1
 Mn  Mn4  1  0.50049  0.00042  0.49663  1
 O  O1  1  -0.00006  0.25836  0.00194  1
 O  O2  1  0.50099  0.92757  0.16214  1
 O  O3  1  0.00031  0.58693  0.36148  1
 O  O4  1  0.49993  0.25936  0.50632  1
 O  O5  1  -0.00026  0.74466  0.97027  1
 O  O6  1  0.49953  0.74084  0.50941  1
 O  O7  1  -0.00001  0.07756  0.33203  1
 O  O8  1  -0.00101  0.40397  0.67173  1
 O  O9  1  0.50000  0.07740  0.83234  1
 O  O10  1  0.50054  0.59058  0.82208  1
 O  O11  1  0.49896  0.40372  0.16877  1
 O  O12  1  0.00098  0.92863  0.66117  1
