CIF file written using JARVIS-Tools package.
data_Li3I
_symmetry_space_group_name_H-M  'Pm'
_cell_length_a       8.14453
_cell_length_b       4.1313
_cell_length_c       4.15841
_cell_angle_alpha    59.9132
_cell_angle_beta     120.701
_cell_angle_gamma    104.827

_symmetry_Int_Tables_number  6
_chemical_formula_structural  Li3I
_chemical_formula_sum  Li3I
_cell_volume  104.09936913401776
_cell_formula_units_Z  1
loop_
  _symmetry_equiv_pos_site_id
 _symmetry_equiv_pos_as_xyz
 1  'x, y, z'
loop_
 _atom_site_type_symbol
 _atom_site_label
 _atom_site_symmetry_multiplicity
 _atom_site_fract_x
 _atom_site_fract_y
 _atom_site_fract_z
 _atom_site_fract_occupancy
 I  I1  1  0.83253  0.35385  0.13481  1
 Li  Li1  1  0.07604  0.02305  0.04308  1
 Li  Li2  1  0.58911  0.02297  0.55620  1
 Li  Li3  1  0.33261  0.69433  0.96285  1
