CIF file written using JARVIS-Tools package.
data_LiI3
_symmetry_space_group_name_H-M  'P1'
_cell_length_a       6.21636
_cell_length_b       6.3575
_cell_length_c       5.53866
_cell_angle_alpha    137.131
_cell_angle_beta     80.2572
_cell_angle_gamma    97.0664

_symmetry_Int_Tables_number  1
_chemical_formula_structural  LiI3
_chemical_formula_sum  LiI3
_cell_volume  146.7699989253279
_cell_formula_units_Z  1
loop_
  _symmetry_equiv_pos_site_id
 _symmetry_equiv_pos_as_xyz
 1  'x, y, z'
loop_
 _atom_site_type_symbol
 _atom_site_label
 _atom_site_symmetry_multiplicity
 _atom_site_fract_x
 _atom_site_fract_y
 _atom_site_fract_z
 _atom_site_fract_occupancy
 I  I1  1  0.75792  0.71129  0.69387  1
 I  I2  1  0.13929  0.35078  0.68029  1
 I  I3  1  0.46116  0.01260  0.64434  1
 Li  Li1  1  0.04236  0.20953  0.07821  1
