CIF file written using JARVIS-Tools package.
data_ZrH8C6O4
_symmetry_space_group_name_H-M  'P1'
_cell_length_a       3.77158
_cell_length_b       4.677
_cell_length_c       9.42716
_cell_angle_alpha    78.54
_cell_angle_beta     86.3854
_cell_angle_gamma    74.2574

_symmetry_Int_Tables_number  1
_chemical_formula_structural  ZrH8C6O4
_chemical_formula_sum  ZrH8C6O4
_cell_volume  156.85585074372858
_cell_formula_units_Z  1
loop_
  _symmetry_equiv_pos_site_id
 _symmetry_equiv_pos_as_xyz
 1  'x, y, z'
loop_
 _atom_site_type_symbol
 _atom_site_label
 _atom_site_symmetry_multiplicity
 _atom_site_fract_x
 _atom_site_fract_y
 _atom_site_fract_z
 _atom_site_fract_occupancy
 C  C1  1  0.53739  0.39439  0.92033  1
 C  C2  1  0.56813  0.69457  0.82747  1
 C  C3  1  0.55894  0.70111  0.66406  1
 C  C4  1  0.87923  0.45564  0.45207  1
 C  C5  1  0.80085  0.41884  0.61460  1
 C  C6  1  0.41426  0.39590  0.07597  1
 H  H1  1  0.79217  0.21216  0.92027  1
 H  H2  1  0.32824  0.31547  0.87370  1
 H  H3  1  0.82059  0.74325  0.85638  1
 H  H4  1  0.33843  0.87588  0.85626  1
 H  H5  1  0.06870  0.34016  0.66956  1
 H  H6  1  0.66708  0.23427  0.64700  1
 H  H7  1  0.27413  0.73361  0.63193  1
 H  H8  1  0.63857  0.90001  0.60404  1
 O  O1  1  0.96370  0.17420  0.41112  1
 O  O2  1  0.51732  0.14576  0.16684  1
 O  O3  1  0.58733  0.66190  0.36437  1
 O  O4  1  0.19232  0.63281  0.10901  1
 Zr  Zr1  1  0.03518  0.84931  0.30180  1
