CIF file written using JARVIS-Tools package.
data_K2VH2OF5
_symmetry_space_group_name_H-M  'C2/c'
_cell_length_a       6.12258
_cell_length_b       6.12255
_cell_length_c       8.01782
_cell_angle_alpha    84.8049
_cell_angle_beta     84.8048
_cell_angle_gamma    79.5622

_symmetry_Int_Tables_number  15
_chemical_formula_structural  K2VH2OF5
_chemical_formula_sum  K4V2H4O2F0
_cell_volume  293.5219143158879
_cell_formula_units_Z  2
loop_
  _symmetry_equiv_pos_site_id
 _symmetry_equiv_pos_as_xyz
 1  'x, y, z'
loop_
 _atom_site_type_symbol
 _atom_site_label
 _atom_site_symmetry_multiplicity
 _atom_site_fract_x
 _atom_site_fract_y
 _atom_site_fract_z
 _atom_site_fract_occupancy
 F  F1  1  0.86165  0.27739  0.00905  1
 F  F2  1  0.13835  0.72261  0.99095  1
 F  F3  1  0.27740  0.86165  0.50905  1
 F  F4  1  0.99397  0.39651  0.30020  1
 F  F5  1  0.60349  0.00603  0.19980  1
 F  F6  1  0.00603  0.60349  0.69979  1
 F  F7  1  0.72261  0.13835  0.49095  1
 F  F8  1  0.39651  0.99397  0.80021  1
 F  F9  1  0.45509  0.54491  0.75000  1
 F  F10  1  0.54491  0.45509  0.25000  1
 H  H1  1  0.10093  0.84599  0.15447  1
 H  H2  1  0.15401  0.89907  0.34553  1
 H  H3  1  0.89907  0.15401  0.84553  1
 H  H4  1  0.84599  0.10094  0.65447  1
 K  K1  1  0.30298  0.29295  0.03013  1
 K  K2  1  0.29295  0.30298  0.53013  1
 K  K3  1  0.69702  0.70705  0.96987  1
 K  K4  1  0.70705  0.69702  0.46987  1
 O  O1  1  0.05648  0.94352  0.25000  1
 O  O2  1  0.94352  0.05648  0.75000  1
 V  V1  1  0.20554  0.79446  0.75000  1
 V  V2  1  0.79446  0.20554  0.25000  1
