CIF file written using JARVIS-Tools package.
data_Li7Mn4CoO12
_symmetry_space_group_name_H-M  'Pm'
_cell_length_a       2.83956
_cell_length_b       8.06105
_cell_length_c       9.65295
_cell_angle_alpha    64.4308
_cell_angle_beta     90
_cell_angle_gamma    90

_symmetry_Int_Tables_number  6
_chemical_formula_structural  Li7Mn4CoO12
_chemical_formula_sum  Li7Mn4CoO2
_cell_volume  199.31532870193683
_cell_formula_units_Z  1
loop_
  _symmetry_equiv_pos_site_id
 _symmetry_equiv_pos_as_xyz
 1  'x, y, z'
loop_
 _atom_site_type_symbol
 _atom_site_label
 _atom_site_symmetry_multiplicity
 _atom_site_fract_x
 _atom_site_fract_y
 _atom_site_fract_z
 _atom_site_fract_occupancy
 Co  Co1  1  0.50000  0.00113  0.50211  1
 Li  Li1  1  0.50000  0.33335  0.83213  1
 Li  Li2  1  0.00000  0.83672  0.33583  1
 Li  Li3  1  0.00000  0.17835  0.67420  1
 Li  Li4  1  0.50000  0.83503  0.83060  1
 Li  Li5  1  0.50000  0.16925  0.15789  1
 Li  Li6  1  0.50000  0.49590  0.51060  1
 Li  Li7  1  0.00000  0.48526  0.98898  1
 Mn  Mn1  1  0.00000  0.01014  0.99711  1
 Mn  Mn2  1  0.00000  0.65817  0.66893  1
 Mn  Mn3  1  0.00000  0.33381  0.33200  1
 Mn  Mn4  1  0.50000  0.66329  0.16695  1
 O  O1  1  0.00000  0.22925  0.00457  1
 O  O2  1  0.50000  0.90925  0.15701  1
 O  O3  1  0.50000  0.25000  0.48627  1
 O  O4  1  0.50000  0.59471  0.81705  1
 O  O5  1  0.00000  0.08648  0.35009  1
 O  O6  1  0.50000  0.41618  0.17658  1
 O  O7  1  0.00000  0.74786  0.01466  1
 O  O8  1  0.50000  0.75719  0.51183  1
 O  O9  1  0.50000  0.07181  0.84953  1
 O  O10  1  0.00000  0.91688  0.65107  1
 O  O11  1  0.00000  0.43744  0.66229  1
 O  O12  1  0.00000  0.58254  0.32170  1
