CIF file written using JARVIS-Tools package.
data_ZrH10C7O4
_symmetry_space_group_name_H-M  'P1'
_cell_length_a       3.93722
_cell_length_b       4.56973
_cell_length_c       10.7055
_cell_angle_alpha    99.5001
_cell_angle_beta     91.7968
_cell_angle_gamma    108.367

_symmetry_Int_Tables_number  1
_chemical_formula_structural  ZrH10C7O4
_chemical_formula_sum  ZrH0C7O4
_cell_volume  179.5778254972026
_cell_formula_units_Z  1
loop_
  _symmetry_equiv_pos_site_id
 _symmetry_equiv_pos_as_xyz
 1  'x, y, z'
loop_
 _atom_site_type_symbol
 _atom_site_label
 _atom_site_symmetry_multiplicity
 _atom_site_fract_x
 _atom_site_fract_y
 _atom_site_fract_z
 _atom_site_fract_occupancy
 C  C1  1  0.13018  0.49188  0.93432  1
 C  C2  1  0.95216  0.09195  0.72830  1
 C  C3  1  0.04554  0.88272  0.61650  1
 C  C4  1  0.38872  0.60405  0.05225  1
 C  C5  1  0.25214  0.05658  0.51587  1
 C  C6  1  0.08279  0.92195  0.37972  1
 C  C7  1  0.26022  0.29224  0.82757  1
 H  H1  1  0.08454  0.69201  0.90121  1
 H  H2  1  0.82693  0.24570  0.69001  1
 H  H3  1  0.37429  0.13706  0.87002  1
 H  H4  1  0.79320  0.70952  0.56930  1
 H  H5  1  0.74649  0.94167  0.77837  1
 H  H6  1  0.27687  0.30693  0.53641  1
 H  H7  1  0.52748  0.04558  0.51664  1
 H  H8  1  0.19718  0.74407  0.65267  1
 H  H9  1  0.47744  0.44693  0.78356  1
 H  H10  1  0.87683  0.34250  0.96140  1
 O  O1  1  0.33183  0.04541  0.29080  1
 O  O2  1  0.64823  0.86436  0.06485  1
 O  O3  1  0.98181  0.59596  0.35451  1
 O  O4  1  0.34844  0.42761  0.13558  1
 Zr  Zr1  1  0.88314  0.18539  0.24876  1
