CIF file written using JARVIS-Tools package.
data_K2CoO2
_symmetry_space_group_name_H-M  'P2_1/c'
_cell_length_a       6.46304
_cell_length_b       6.81633
_cell_length_c       9.52765
_cell_angle_alpha    89.9999
_cell_angle_beta     90.0004
_cell_angle_gamma    116.565

_symmetry_Int_Tables_number  14
_chemical_formula_structural  K2CoO2
_chemical_formula_sum  K8Co4O8
_cell_volume  375.42166221297583
_cell_formula_units_Z  4
loop_
  _symmetry_equiv_pos_site_id
 _symmetry_equiv_pos_as_xyz
 1  'x, y, z'
loop_
 _atom_site_type_symbol
 _atom_site_label
 _atom_site_symmetry_multiplicity
 _atom_site_fract_x
 _atom_site_fract_y
 _atom_site_fract_z
 _atom_site_fract_occupancy
 Co  Co1  1  0.30412  0.90865  0.43258  1
 Co  Co2  1  0.30411  0.40859  0.06742  1
 Co  Co3  1  0.69589  0.09141  0.56742  1
 Co  Co4  1  0.69588  0.59136  0.93258  1
 K  K1  1  0.21332  0.89488  0.08788  1
 K  K2  1  0.78668  0.60512  0.58788  1
 K  K3  1  0.74368  0.35757  0.23580  1
 K  K4  1  0.21332  0.39493  0.41211  1
 K  K5  1  0.25633  0.64243  0.76420  1
 K  K6  1  0.74367  0.85758  0.26420  1
 K  K7  1  0.25632  0.14242  0.73580  1
 K  K8  1  0.78668  0.10507  0.91211  1
 O  O1  1  0.04738  0.22299  0.14959  1
 O  O2  1  0.49222  0.19921  0.48222  1
 O  O3  1  0.49222  0.69916  0.01778  1
 O  O4  1  0.50778  0.30079  0.98222  1
 O  O5  1  0.50778  0.80085  0.51778  1
 O  O6  1  0.95260  0.77698  0.85042  1
 O  O7  1  0.04739  0.72301  0.35041  1
 O  O8  1  0.95262  0.27701  0.64959  1
