CIF file written using JARVIS-Tools package.
data_Li3MnP2
_symmetry_space_group_name_H-M  'P4_2/nmc'
_cell_length_a       4.05824
_cell_length_b       4.05824
_cell_length_c       11.5557
_cell_angle_alpha    90
_cell_angle_beta     90
_cell_angle_gamma    90

_symmetry_Int_Tables_number  137
_chemical_formula_structural  Li3MnP2
_chemical_formula_sum  Li6Mn2P4
_cell_volume  190.31438865867884
_cell_formula_units_Z  2
loop_
  _symmetry_equiv_pos_site_id
 _symmetry_equiv_pos_as_xyz
 1  'x, y, z'
loop_
 _atom_site_type_symbol
 _atom_site_label
 _atom_site_symmetry_multiplicity
 _atom_site_fract_x
 _atom_site_fract_y
 _atom_site_fract_z
 _atom_site_fract_occupancy
 Li  Li1  1  0.50000  0.50000  0.75417  1
 Li  Li2  1  0.00000  0.00000  0.50000  1
 Li  Li3  1  0.00000  0.00000  0.74583  1
 Li  Li4  1  0.00000  0.00000  0.25417  1
 Li  Li5  1  0.50000  0.50000  0.00000  1
 Li  Li6  1  0.50000  0.50000  0.24583  1
 Mn  Mn1  1  0.00000  0.00000  0.00000  1
 Mn  Mn2  1  0.50000  0.50000  0.50000  1
 P  P1  1  0.00000  0.50000  0.11430  1
 P  P2  1  0.00000  0.50000  0.61430  1
 P  P3  1  0.50000  0.00000  0.88570  1
 P  P4  1  0.50000  0.00000  0.38570  1
