CIF file written using JARVIS-Tools package.
data_HfH6C5O4
_symmetry_space_group_name_H-M  'P1'
_cell_length_a       3.63925
_cell_length_b       5.01208
_cell_length_c       8.98845
_cell_angle_alpha    107.418
_cell_angle_beta     98.0677
_cell_angle_gamma    93.6574

_symmetry_Int_Tables_number  1
_chemical_formula_structural  HfH6C5O4
_chemical_formula_sum  HfH6C5O4
_cell_volume  153.9112929855153
_cell_formula_units_Z  1
loop_
  _symmetry_equiv_pos_site_id
 _symmetry_equiv_pos_as_xyz
 1  'x, y, z'
loop_
 _atom_site_type_symbol
 _atom_site_label
 _atom_site_symmetry_multiplicity
 _atom_site_fract_x
 _atom_site_fract_y
 _atom_site_fract_z
 _atom_site_fract_occupancy
 C  C1  1  0.46289  0.84943  0.51525  1
 C  C2  1  0.66313  0.99141  0.67910  1
 C  C3  1  0.16925  0.73131  0.92242  1
 C  C4  1  0.79458  0.30371  0.71945  1
 C  C5  1  0.00335  0.43077  0.88978  1
 H  H1  1  0.82862  0.41290  0.97795  1
 H  H2  1  0.24453  0.31316  0.90770  1
 H  H3  1  0.89669  0.87013  0.70190  1
 H  H4  1  0.47720  0.94658  0.76007  1
 H  H5  1  0.55627  0.42122  0.70352  1
 H  H6  1  -0.02328  0.33676  0.63714  1
 Hf  Hf1  1  0.27362  0.21528  0.26738  1
 O  O1  1  0.36904  -0.00507  0.42097  1
 O  O2  1  0.38013  0.58555  0.46955  1
 O  O3  1  0.17225  0.88247  0.06596  1
 O  O4  1  0.76647  0.32267  0.22414  1
