CIF file written using JARVIS-Tools package.
data_Na3CoO3
_symmetry_space_group_name_H-M  'I-43m'
_cell_length_a       8.22064
_cell_length_b       8.22064
_cell_length_c       8.22064
_cell_angle_alpha    109.471
_cell_angle_beta     109.471
_cell_angle_gamma    109.471

_symmetry_Int_Tables_number  217
_chemical_formula_structural  Na3CoO3
_chemical_formula_sum  Na2Co4O2
_cell_volume  427.6571048979813
_cell_formula_units_Z  4
loop_
  _symmetry_equiv_pos_site_id
 _symmetry_equiv_pos_as_xyz
 1  'x, y, z'
loop_
 _atom_site_type_symbol
 _atom_site_label
 _atom_site_symmetry_multiplicity
 _atom_site_fract_x
 _atom_site_fract_y
 _atom_site_fract_z
 _atom_site_fract_occupancy
 Co  Co1  1  -0.00000  0.63398  -0.00000  1
 Co  Co2  1  0.63398  -0.00000  -0.00000  1
 Co  Co3  1  0.36602  0.36602  0.36602  1
 Co  Co4  1  -0.00000  -0.00000  0.63398  1
 Na  Na1  1  0.23488  0.72641  0.72641  1
 Na  Na2  1  -0.00000  0.50848  0.27359  1
 Na  Na3  1  -0.00000  0.27359  0.50848  1
 Na  Na4  1  0.49152  0.76512  0.49152  1
 Na  Na5  1  0.50848  -0.00000  0.27359  1
 Na  Na6  1  0.27359  -0.00000  0.50848  1
 Na  Na7  1  0.72641  0.72641  0.23488  1
 Na  Na8  1  0.27359  0.50848  -0.00000  1
 Na  Na9  1  0.72641  0.23488  0.72641  1
 Na  Na10  1  0.76512  0.49152  0.49152  1
 Na  Na11  1  0.50848  0.27359  -0.00000  1
 Na  Na12  1  0.49152  0.49152  0.76512  1
 O  O1  1  0.22739  0.22739  0.74949  1
 O  O2  1  0.22739  0.74949  0.22739  1
 O  O3  1  0.25051  0.47790  0.47790  1
 O  O4  1  0.52210  -0.00000  0.77261  1
 O  O5  1  0.52210  0.77261  -0.00000  1
 O  O6  1  0.77261  0.52210  -0.00000  1
 O  O7  1  0.47790  0.25051  0.47790  1
 O  O8  1  0.77261  -0.00000  0.52210  1
 O  O9  1  0.74949  0.22739  0.22739  1
 O  O10  1  -0.00000  0.77261  0.52210  1
 O  O11  1  0.47790  0.47790  0.25051  1
 O  O12  1  -0.00000  0.52210  0.77261  1
