CIF file written using JARVIS-Tools package.
data_HfH4C4O4
_symmetry_space_group_name_H-M  'P1'
_cell_length_a       3.74266
_cell_length_b       4.59128
_cell_length_c       7.22956
_cell_angle_alpha    74.8388
_cell_angle_beta     89.5638
_cell_angle_gamma    75.0638

_symmetry_Int_Tables_number  1
_chemical_formula_structural  HfH4C4O4
_chemical_formula_sum  HfH4C4O4
_cell_volume  115.61649910647016
_cell_formula_units_Z  1
loop_
  _symmetry_equiv_pos_site_id
 _symmetry_equiv_pos_as_xyz
 1  'x, y, z'
loop_
 _atom_site_type_symbol
 _atom_site_label
 _atom_site_symmetry_multiplicity
 _atom_site_fract_x
 _atom_site_fract_y
 _atom_site_fract_z
 _atom_site_fract_occupancy
 C  C1  1  0.24101  0.98039  0.55988  1
 C  C2  1  0.39124  0.86549  0.76811  1
 C  C3  1  0.63247  0.40323  0.05810  1
 C  C4  1  0.48948  0.51239  0.85041  1
 H  H1  1  0.18453  0.97520  0.85474  1
 H  H2  1  0.63927  0.94815  0.77926  1
 H  H3  1  0.69191  0.39396  0.76554  1
 H  H4  1  0.24286  0.42652  0.84315  1
 Hf  Hf1  1  0.05733  0.74038  0.35985  1
 O  O1  1  0.14023  0.30732  0.50604  1
 O  O2  1  0.51770  0.86784  0.43334  1
 O  O3  1  0.87679  0.13986  0.11396  1
 O  O4  1  0.51591  0.57506  0.17154  1
