CIF file written using JARVIS-Tools package.
data_LiFeF4
_symmetry_space_group_name_H-M  'C2/m'
_cell_length_a       6.52583
_cell_length_b       6.52583
_cell_length_c       6.54894
_cell_angle_alpha    72.5486
_cell_angle_beta     72.5486
_cell_angle_gamma    34.8537

_symmetry_Int_Tables_number  12
_chemical_formula_structural  LiFeF4
_chemical_formula_sum  Li2Fe2F8
_cell_volume  151.306099259234
_cell_formula_units_Z  2
loop_
  _symmetry_equiv_pos_site_id
 _symmetry_equiv_pos_as_xyz
 1  'x, y, z'
loop_
 _atom_site_type_symbol
 _atom_site_label
 _atom_site_symmetry_multiplicity
 _atom_site_fract_x
 _atom_site_fract_y
 _atom_site_fract_z
 _atom_site_fract_occupancy
 F  F1  1  0.94624  0.94624  0.86706  1
 F  F2  1  0.85424  0.85424  0.50522  1
 F  F3  1  0.25489  0.25489  0.84390  1
 F  F4  1  0.38075  0.38075  0.18761  1
 F  F5  1  0.61925  0.61925  0.81239  1
 F  F6  1  0.74511  0.74511  0.15610  1
 F  F7  1  0.14576  0.14576  0.49478  1
 F  F8  1  0.05376  0.05376  0.13294  1
 Fe  Fe1  1  0.88931  0.88931  0.21226  1
 Fe  Fe2  1  0.11069  0.11069  0.78774  1
 Li  Li1  1  0.80460  0.80460  0.80748  1
 Li  Li2  1  0.19540  0.19540  0.19252  1
