CIF file written using JARVIS-Tools package.
data_HfH6C5O4
_symmetry_space_group_name_H-M  'P1'
_cell_length_a       3.49426
_cell_length_b       4.08061
_cell_length_c       8.99501
_cell_angle_alpha    81.6063
_cell_angle_beta     83.2771
_cell_angle_gamma    67.6883

_symmetry_Int_Tables_number  1
_chemical_formula_structural  HfH6C5O4
_chemical_formula_sum  HfH6C5O4
_cell_volume  117.11742439242701
_cell_formula_units_Z  1
loop_
  _symmetry_equiv_pos_site_id
 _symmetry_equiv_pos_as_xyz
 1  'x, y, z'
loop_
 _atom_site_type_symbol
 _atom_site_label
 _atom_site_symmetry_multiplicity
 _atom_site_fract_x
 _atom_site_fract_y
 _atom_site_fract_z
 _atom_site_fract_occupancy
 C  C1  1  0.48927  0.49933  0.48327  1
 C  C2  1  0.68604  0.46410  0.63082  1
 C  C3  1  0.43178  0.46680  0.06866  1
 C  C4  1  0.42731  0.62120  0.77306  1
 C  C5  1  0.60477  0.36934  0.91298  1
 H  H1  1  0.59318  0.10631  0.90903  1
 H  H2  1  0.93803  0.31040  0.91397  1
 H  H3  1  0.91718  0.58550  0.60290  1
 H  H4  1  0.85840  0.17859  0.65962  1
 H  H5  1  0.10100  0.66367  0.77166  1
 H  H6  1  0.43459  0.88581  0.77665  1
 Hf  Hf1  1  0.10702  0.97336  0.32870  1
 O  O1  1  0.77628  0.57475  0.34538  1
 O  O2  1  0.51209  0.15198  0.46106  1
 O  O3  1  0.23276  0.78269  0.09612  1
 O  O4  1  0.51250  0.20605  0.17558  1
