CIF file written using JARVIS-Tools package.
data_MnPbO3
_symmetry_space_group_name_H-M  'C2/c'
_cell_length_a       5.52564
_cell_length_b       5.52283
_cell_length_c       13.5967
_cell_angle_alpha    89.1666
_cell_angle_beta     88.3338
_cell_angle_gamma    59.9831

_symmetry_Int_Tables_number  15
_chemical_formula_structural  MnPbO3
_chemical_formula_sum  Mn6Pb6O8
_cell_volume  359.1303704502222
_cell_formula_units_Z  6
loop_
  _symmetry_equiv_pos_site_id
 _symmetry_equiv_pos_as_xyz
 1  'x, y, z'
loop_
 _atom_site_type_symbol
 _atom_site_label
 _atom_site_symmetry_multiplicity
 _atom_site_fract_x
 _atom_site_fract_y
 _atom_site_fract_z
 _atom_site_fract_occupancy
 Mn  Mn1  1  0.00000  0.00000  0.00000  1
 Mn  Mn2  1  0.00000  0.00000  0.50000  1
 Mn  Mn3  1  0.67262  0.67414  0.84491  1
 Mn  Mn4  1  0.65325  0.67414  0.65509  1
 Mn  Mn5  1  0.32738  0.32586  0.15509  1
 Mn  Mn6  1  0.34675  0.32586  0.34491  1
 O  O1  1  0.88225  0.32889  0.91791  1
 O  O2  1  0.03975  0.47330  0.26121  1
 O  O3  1  0.11775  0.67111  0.08209  1
 O  O4  1  0.51305  0.52670  0.76121  1
 O  O5  1  0.37391  0.83285  0.93850  1
 O  O6  1  0.48695  0.47330  0.23879  1
 O  O7  1  0.11695  0.17174  0.09515  1
 O  O8  1  0.51328  0.97343  0.75000  1
 O  O9  1  0.48672  0.02657  0.25000  1
 O  O10  1  0.96025  0.52670  0.73879  1
 O  O11  1  0.71130  0.17174  0.40485  1
 O  O12  1  0.62609  0.16715  0.06150  1
 O  O13  1  0.28870  0.82826  0.59515  1
 O  O14  1  0.21114  0.67111  0.41791  1
 O  O15  1  0.20677  0.16715  0.43850  1
 O  O16  1  0.78886  0.32889  0.58209  1
 O  O17  1  0.88305  0.82826  0.90485  1
 O  O18  1  0.79323  0.83285  0.56150  1
 Pb  Pb1  1  0.67105  0.65818  0.09149  1
 Pb  Pb2  1  0.00912  0.98177  0.25000  1
 Pb  Pb3  1  0.99088  0.01823  0.75000  1
 Pb  Pb4  1  0.67078  0.65818  0.40851  1
 Pb  Pb5  1  0.32895  0.34182  0.90851  1
 Pb  Pb6  1  0.32922  0.34182  0.59149  1
