CIF file written using JARVIS-Tools package.
data_YbMoClO4
_symmetry_space_group_name_H-M  'C2/m'
_cell_length_a       6.56968
_cell_length_b       6.56968
_cell_length_c       6.88357
_cell_angle_alpha    77.7355
_cell_angle_beta     77.7355
_cell_angle_gamma    63.2306

_symmetry_Int_Tables_number  12
_chemical_formula_structural  YbMoClO4
_chemical_formula_sum  Yb2Mo2Cl2O8
_cell_volume  256.8728694010479
_cell_formula_units_Z  2
loop_
  _symmetry_equiv_pos_site_id
 _symmetry_equiv_pos_as_xyz
 1  'x, y, z'
loop_
 _atom_site_type_symbol
 _atom_site_label
 _atom_site_symmetry_multiplicity
 _atom_site_fract_x
 _atom_site_fract_y
 _atom_site_fract_z
 _atom_site_fract_occupancy
 Cl  Cl1  1  0.02289  0.02289  0.13286  1
 Cl  Cl2  1  0.97711  0.97711  0.86714  1
 Mo  Mo1  1  0.64703  0.64703  0.72026  1
 Mo  Mo2  1  0.35297  0.35297  0.27974  1
 O  O1  1  0.49550  0.89091  0.85325  1
 O  O2  1  0.51461  0.51461  0.25019  1
 O  O3  1  0.89091  0.49550  0.85325  1
 O  O4  1  0.48539  0.48539  0.74981  1
 O  O5  1  0.50450  0.10909  0.14675  1
 O  O6  1  0.10909  0.50450  0.14675  1
 O  O7  1  0.72797  0.72797  0.46615  1
 O  O8  1  0.27203  0.27203  0.53385  1
 Yb  Yb1  1  0.72096  0.72096  0.13864  1
 Yb  Yb2  1  0.27904  0.27904  0.86136  1
