CIF file written using JARVIS-Tools package.
data_KLi2FeO3
_symmetry_space_group_name_H-M  'Cmcm'
_cell_length_a       6.05756
_cell_length_b       6.52728
_cell_length_c       8.65673
_cell_angle_alpha    90
_cell_angle_beta     90
_cell_angle_gamma    90

_symmetry_Int_Tables_number  63
_chemical_formula_structural  KLi2FeO3
_chemical_formula_sum  K4Li8Fe4O2
_cell_volume  342.2816908011919
_cell_formula_units_Z  4
loop_
  _symmetry_equiv_pos_site_id
 _symmetry_equiv_pos_as_xyz
 1  'x, y, z'
loop_
 _atom_site_type_symbol
 _atom_site_label
 _atom_site_symmetry_multiplicity
 _atom_site_fract_x
 _atom_site_fract_y
 _atom_site_fract_z
 _atom_site_fract_occupancy
 Fe  Fe1  1  0.75000  0.68663  0.49999  1
 Fe  Fe2  1  0.75000  0.18663  0.00001  1
 Fe  Fe3  1  0.25000  0.31337  0.50001  1
 Fe  Fe4  1  0.25000  0.81337  0.99999  1
 K  K1  1  0.75000  0.17736  0.50002  1
 K  K2  1  0.25000  0.82264  0.49998  1
 K  K3  1  0.75000  0.67736  -0.00002  1
 K  K4  1  0.25000  0.32264  0.00002  1
 Li  Li1  1  0.99995  0.00005  0.77188  1
 Li  Li2  1  0.49995  0.49995  0.27188  1
 Li  Li3  1  0.00005  0.49995  0.27188  1
 Li  Li4  1  0.50005  0.50005  0.72812  1
 Li  Li5  1  0.99995  0.50005  0.72812  1
 Li  Li6  1  0.00005  0.99995  0.22812  1
 Li  Li7  1  0.49995  0.99995  0.22812  1
 Li  Li8  1  0.50005  0.00005  0.77188  1
 O  O1  1  0.25000  0.65884  0.81983  1
 O  O2  1  0.25000  0.65898  0.18022  1
 O  O3  1  0.00000  0.50000  0.50000  1
 O  O4  1  0.50000  0.50000  0.50000  1
 O  O5  1  0.75000  0.34102  0.81978  1
 O  O6  1  0.00000  0.00000  0.00000  1
 O  O7  1  0.25000  0.15884  0.68017  1
 O  O8  1  0.25000  0.15898  0.31978  1
 O  O9  1  0.50000  0.00000  0.00000  1
 O  O10  1  0.75000  0.84116  0.31983  1
 O  O11  1  0.75000  0.34116  0.18017  1
 O  O12  1  0.75000  0.84102  0.68022  1
