CIF file written using JARVIS-Tools package.
data_HfH8C6O4
_symmetry_space_group_name_H-M  'P1'
_cell_length_a       3.81829
_cell_length_b       4.6692
_cell_length_c       9.68017
_cell_angle_alpha    106.892
_cell_angle_beta     85.3096
_cell_angle_gamma    108.059

_symmetry_Int_Tables_number  1
_chemical_formula_structural  HfH8C6O4
_chemical_formula_sum  HfH8C6O4
_cell_volume  156.99406421759446
_cell_formula_units_Z  1
loop_
  _symmetry_equiv_pos_site_id
 _symmetry_equiv_pos_as_xyz
 1  'x, y, z'
loop_
 _atom_site_type_symbol
 _atom_site_label
 _atom_site_symmetry_multiplicity
 _atom_site_fract_x
 _atom_site_fract_y
 _atom_site_fract_z
 _atom_site_fract_occupancy
 C  C1  1  0.53302  0.68690  0.07773  1
 C  C2  1  0.44074  0.52167  0.92013  1
 C  C3  1  0.55328  0.48133  0.17265  1
 C  C4  1  0.53940  0.64198  0.33488  1
 C  C5  1  0.88669  0.10508  0.54519  1
 C  C6  1  0.79637  0.97727  0.38388  1
 H  H1  1  0.78578  0.88280  0.08329  1
 H  H2  1  0.31274  0.79648  0.11758  1
 H  H3  1  0.80461  0.40919  0.14642  1
 H  H4  1  0.32142  0.26465  0.14361  1
 H  H5  1  0.06160  -0.00128  0.32731  1
 H  H6  1  0.67449  0.13409  0.35275  1
 H  H7  1  0.25622  0.64349  0.36403  1
 H  H8  1  0.60111  0.50066  0.39680  1
 Hf  Hf1  1  0.03442  0.86467  0.69070  1
 O  O1  1  0.20668  0.24649  0.88622  1
 O  O2  1  0.97824  0.43058  0.58489  1
 O  O3  1  0.58651  0.98224  0.63693  1
 O  O4  1  0.57808  0.67227  0.82812  1
