CIF file written using JARVIS-Tools package.
data_Sr2MnCu2S2O2
_symmetry_space_group_name_H-M  'I4/mmm'
_cell_length_a       5.63293
_cell_length_b       5.63283
_cell_length_c       9.42788
_cell_angle_alpha    90.0006
_cell_angle_beta     72.6212
_cell_angle_gamma    90.0001

_symmetry_Int_Tables_number  139
_chemical_formula_structural  Sr2MnCu2S2O2
_chemical_formula_sum  Sr4Mn2Cu4S4O4
_cell_volume  285.48498329439127
_cell_formula_units_Z  2
loop_
  _symmetry_equiv_pos_site_id
 _symmetry_equiv_pos_as_xyz
 1  'x, y, z'
loop_
 _atom_site_type_symbol
 _atom_site_label
 _atom_site_symmetry_multiplicity
 _atom_site_fract_x
 _atom_site_fract_y
 _atom_site_fract_z
 _atom_site_fract_occupancy
 Cu  Cu1  1  0.49998  0.25000  0.50000  1
 Cu  Cu2  1  0.99998  0.75000  0.50000  1
 Cu  Cu3  1  0.50002  0.75000  0.49999  1
 Cu  Cu4  1  0.00002  0.25000  0.49999  1
 Mn  Mn1  1  0.49999  0.50000  0.00002  1
 Mn  Mn2  1  0.99999  -0.00000  0.00001  1
 O  O1  1  0.25000  0.75000  0.00000  1
 O  O2  1  0.75000  0.75000  0.00000  1
 O  O3  1  0.25000  0.25000  0.00000  1
 O  O4  1  0.75000  0.25000  0.00000  1
 S  S1  1  0.17088  0.99999  0.65826  1
 S  S2  1  0.67088  0.49999  0.65826  1
 S  S3  1  0.32913  0.50001  0.34172  1
 S  S4  1  0.82913  0.00001  0.34172  1
 Sr  Sr1  1  0.59373  -0.00000  0.81252  1
 Sr  Sr2  1  0.09373  0.50000  0.81252  1
 Sr  Sr3  1  0.90626  0.50000  0.18749  1
 Sr  Sr4  1  0.40626  0.00000  0.18749  1
