CIF file written using JARVIS-Tools package.
data_MgMoO3
_symmetry_space_group_name_H-M  'Cm'
_cell_length_a       4.0678
_cell_length_b       4.0678
_cell_length_c       3.86027
_cell_angle_alpha    91.7325
_cell_angle_beta     91.7325
_cell_angle_gamma    91.007

_symmetry_Int_Tables_number  8
_chemical_formula_structural  MgMoO3
_chemical_formula_sum  MgMoO3
_cell_volume  63.80640702366891
_cell_formula_units_Z  1
loop_
  _symmetry_equiv_pos_site_id
 _symmetry_equiv_pos_as_xyz
 1  'x, y, z'
loop_
 _atom_site_type_symbol
 _atom_site_label
 _atom_site_symmetry_multiplicity
 _atom_site_fract_x
 _atom_site_fract_y
 _atom_site_fract_z
 _atom_site_fract_occupancy
 Mg  Mg1  1  0.51899  0.51899  0.78896  1
 Mo  Mo1  1  0.02369  0.02369  0.91109  1
 O  O1  1  0.52373  0.02252  0.89085  1
 O  O2  1  0.02252  0.52373  0.89085  1
 O  O3  1  0.02443  0.02443  0.40490  1
