CIF file written using JARVIS-Tools package.
data_SrH16O10
_symmetry_space_group_name_H-M  'P-1'
_cell_length_a       6.15618
_cell_length_b       6.16042
_cell_length_c       5.75455
_cell_angle_alpha    89.252
_cell_angle_beta     92.4748
_cell_angle_gamma    89.7369

_symmetry_Int_Tables_number  2
_chemical_formula_structural  SrH16O10
_chemical_formula_sum  SrH6O0
_cell_volume  218.01447040453363
_cell_formula_units_Z  1
loop_
  _symmetry_equiv_pos_site_id
 _symmetry_equiv_pos_as_xyz
 1  'x, y, z'
loop_
 _atom_site_type_symbol
 _atom_site_label
 _atom_site_symmetry_multiplicity
 _atom_site_fract_x
 _atom_site_fract_y
 _atom_site_fract_z
 _atom_site_fract_occupancy
 H  H1  1  0.39933  0.25355  0.72309  1
 H  H2  1  -0.07913  0.28135  0.51104  1
 H  H3  1  0.63182  0.70452  0.69182  1
 H  H4  1  0.71400  0.90003  0.54185  1
 H  H5  1  0.47084  0.00816  0.76353  1
 H  H6  1  0.05221  0.52121  0.77617  1
 H  H7  1  0.29371  0.59639  0.74256  1
 H  H8  1  0.70616  0.39991  0.24742  1
 H  H9  1  0.74326  0.36538  0.67310  1
 H  H10  1  0.36795  0.29148  0.29843  1
 H  H11  1  0.60096  0.74262  0.26741  1
 H  H12  1  0.52923  -0.01202  0.22698  1
 H  H13  1  0.94760  0.47513  0.21338  1
 H  H14  1  0.25698  0.63063  0.31703  1
 H  H15  1  0.07915  0.71487  0.47870  1
 H  H16  1  0.28598  0.09616  0.44872  1
 O  O1  1  0.70044  0.85534  0.70706  1
 O  O2  1  0.85108  0.34658  0.19375  1
 O  O3  1  0.48893  0.50998  0.36369  1
 O  O4  1  0.51119  0.48619  0.62657  1
 O  O5  1  0.10551  0.69980  0.31123  1
 O  O6  1  0.89469  0.29619  0.67859  1
 O  O7  1  0.29933  0.14069  0.28341  1
 O  O8  1  0.66032  0.89123  0.23089  1
 O  O9  1  0.33983  0.10499  0.75958  1
 O  O10  1  0.14866  0.64980  0.79580  1
 Sr  Sr1  1  -0.00002  -0.00192  -0.00487  1
