CIF file written using JARVIS-Tools package.
data_Pr2B2MoO9
_symmetry_space_group_name_H-M  'P-1'
_cell_length_a       5.3161
_cell_length_b       7.05762
_cell_length_c       10.6085
_cell_angle_alpha    74.7516
_cell_angle_beta     76.2669
_cell_angle_gamma    73.4341

_symmetry_Int_Tables_number  2
_chemical_formula_structural  Pr2B2MoO9
_chemical_formula_sum  Pr4B4Mo2O8
_cell_volume  362.3460542341524
_cell_formula_units_Z  2
loop_
  _symmetry_equiv_pos_site_id
 _symmetry_equiv_pos_as_xyz
 1  'x, y, z'
loop_
 _atom_site_type_symbol
 _atom_site_label
 _atom_site_symmetry_multiplicity
 _atom_site_fract_x
 _atom_site_fract_y
 _atom_site_fract_z
 _atom_site_fract_occupancy
 B  B1  1  0.73924  0.24908  0.84310  1
 B  B2  1  0.45755  0.58947  0.86229  1
 B  B3  1  0.54245  0.41053  0.13771  1
 B  B4  1  0.26076  0.75092  0.15690  1
 Mo  Mo1  1  0.96656  0.29107  0.41869  1
 Mo  Mo2  1  0.03344  0.70893  0.58131  1
 O  O1  1  0.14575  0.44387  0.62278  1
 O  O2  1  0.92051  0.17165  0.29889  1
 O  O3  1  0.07949  0.82835  0.70111  1
 O  O4  1  0.52445  0.21731  0.14428  1
 O  O5  1  0.76954  0.20831  0.57110  1
 O  O6  1  0.45351  0.85529  0.14024  1
 O  O7  1  0.23293  0.52469  0.92306  1
 O  O8  1  0.99098  0.13650  0.86520  1
 O  O9  1  0.76707  0.47531  0.07694  1
 O  O10  1  0.23046  0.79169  0.42890  1
 O  O11  1  0.30827  0.54167  0.18667  1
 O  O12  1  0.00902  0.86350  0.13480  1
 O  O13  1  0.54649  0.14471  0.85976  1
 O  O14  1  0.85425  0.55613  0.37722  1
 O  O15  1  0.69173  0.45833  0.81333  1
 O  O16  1  0.47555  0.78269  0.85572  1
 O  O17  1  0.31000  0.18508  0.44245  1
 O  O18  1  0.69000  0.81492  0.55755  1
 Pr  Pr1  1  0.15516  0.20517  0.04745  1
 Pr  Pr2  1  0.62982  0.92045  0.31469  1
 Pr  Pr3  1  0.37018  0.07955  0.68531  1
 Pr  Pr4  1  0.84484  0.79483  0.95255  1
