CIF file written using JARVIS-Tools package.
data_BaGa2As2
_symmetry_space_group_name_H-M  'P2_1/c'
_cell_length_a       10.069
_cell_length_b       7.56003
_cell_length_c       7.72154
_cell_angle_alpha    64.3596
_cell_angle_beta     90
_cell_angle_gamma    90

_symmetry_Int_Tables_number  14
_chemical_formula_structural  BaGa2As2
_chemical_formula_sum  Ba4Ga8As8
_cell_volume  529.8991769218366
_cell_formula_units_Z  4
loop_
  _symmetry_equiv_pos_site_id
 _symmetry_equiv_pos_as_xyz
 1  'x, y, z'
loop_
 _atom_site_type_symbol
 _atom_site_label
 _atom_site_symmetry_multiplicity
 _atom_site_fract_x
 _atom_site_fract_y
 _atom_site_fract_z
 _atom_site_fract_occupancy
 As  As1  1  0.60824  0.78436  0.02977  1
 As  As2  1  0.89176  0.78436  0.52977  1
 As  As3  1  0.82044  0.26666  0.04494  1
 As  As4  1  0.32044  0.73334  0.45506  1
 As  As5  1  0.17956  0.73334  0.95506  1
 As  As6  1  0.67956  0.26666  0.54494  1
 As  As7  1  0.10824  0.21564  0.47023  1
 As  As8  1  0.39176  0.21564  0.97023  1
 Ba  Ba1  1  0.60388  0.58514  0.71871  1
 Ba  Ba2  1  0.89612  0.58514  0.21871  1
 Ba  Ba3  1  0.39612  0.41486  0.28129  1
 Ba  Ba4  1  0.10388  0.41486  0.78129  1
 Ga  Ga1  1  0.78891  0.05370  0.86713  1
 Ga  Ga2  1  0.98530  0.93605  0.74160  1
 Ga  Ga3  1  0.51470  0.93605  0.24160  1
 Ga  Ga4  1  0.28891  0.94630  0.63287  1
 Ga  Ga5  1  0.71109  0.05370  0.36713  1
 Ga  Ga6  1  0.21109  0.94630  0.13287  1
 Ga  Ga7  1  0.01470  0.06395  0.25840  1
 Ga  Ga8  1  0.48530  0.06395  0.75840  1
