CIF file written using JARVIS-Tools package.
data_NaSe2O6
_symmetry_space_group_name_H-M  'Pc'
_cell_length_a       5.12108
_cell_length_b       5.42925
_cell_length_c       10.3004
_cell_angle_alpha    70.7082
_cell_angle_beta     90
_cell_angle_gamma    90

_symmetry_Int_Tables_number  7
_chemical_formula_structural  NaSe2O6
_chemical_formula_sum  Na2Se4O2
_cell_volume  270.3073533042934
_cell_formula_units_Z  2
loop_
  _symmetry_equiv_pos_site_id
 _symmetry_equiv_pos_as_xyz
 1  'x, y, z'
loop_
 _atom_site_type_symbol
 _atom_site_label
 _atom_site_symmetry_multiplicity
 _atom_site_fract_x
 _atom_site_fract_y
 _atom_site_fract_z
 _atom_site_fract_occupancy
 Na  Na1  1  0.17975  -0.00214  0.48292  1
 Na  Na2  1  0.82025  -0.00214  -0.01708  1
 O  O1  1  0.35502  0.34314  0.55123  1
 O  O2  1  0.64498  0.34314  0.05123  1
 O  O3  1  0.12873  0.67155  0.95717  1
 O  O4  1  0.59264  0.65420  0.21778  1
 O  O5  1  0.40736  0.65420  0.71778  1
 O  O6  1  0.53778  0.09827  0.32715  1
 O  O7  1  0.95131  0.91332  0.69094  1
 O  O8  1  0.04869  0.91332  0.19094  1
 O  O9  1  0.95700  0.37289  0.80310  1
 O  O10  1  0.04300  0.37289  0.30310  1
 O  O11  1  0.46222  0.09827  0.82715  1
 O  O12  1  -0.12873  0.67155  0.45717  1
 Se  Se1  1  -0.09242  0.65532  0.30086  1
 Se  Se2  1  0.09242  0.65532  0.80086  1
 Se  Se3  1  0.46646  0.34445  0.18585  1
 Se  Se4  1  0.53354  0.34445  0.68585  1
