CIF file written using JARVIS-Tools package.
data_HfH8C6O4
_symmetry_space_group_name_H-M  'P1'
_cell_length_a       3.82035
_cell_length_b       4.67843
_cell_length_c       9.78446
_cell_angle_alpha    83.7828
_cell_angle_beta     102.39
_cell_angle_gamma    71.236

_symmetry_Int_Tables_number  1
_chemical_formula_structural  HfH8C6O4
_chemical_formula_sum  HfH8C6O4
_cell_volume  158.72850205547985
_cell_formula_units_Z  1
loop_
  _symmetry_equiv_pos_site_id
 _symmetry_equiv_pos_as_xyz
 1  'x, y, z'
loop_
 _atom_site_type_symbol
 _atom_site_label
 _atom_site_symmetry_multiplicity
 _atom_site_fract_x
 _atom_site_fract_y
 _atom_site_fract_z
 _atom_site_fract_occupancy
 C  C1  1  0.53477  0.40993  0.92826  1
 C  C2  1  0.54287  0.40631  0.08350  1
 C  C3  1  0.24321  0.69673  0.82438  1
 C  C4  1  0.25527  0.70602  0.66836  1
 C  C5  1  0.26069  0.44005  0.45466  1
 C  C6  1  0.26045  0.41495  0.61120  1
 H  H1  1  0.82918  0.37216  0.92073  1
 H  H2  1  0.48698  0.19948  0.90367  1
 H  H3  1  0.28873  0.90088  0.85879  1
 H  H4  1  0.95513  0.71814  0.83379  1
 H  H5  1  0.52095  0.22078  0.67076  1
 H  H6  1  0.01382  0.35207  0.62537  1
 H  H7  1  0.00686  0.90049  0.60132  1
 H  H8  1  0.50811  0.75614  0.65413  1
 Hf  Hf1  1  0.30368  0.82904  0.31118  1
 O  O1  1  0.33110  0.64509  0.11851  1
 O  O2  1  0.32287  0.15393  0.41626  1
 O  O3  1  0.89599  0.65901  0.36201  1
 O  O4  1  0.75137  0.15981  0.17285  1
