CIF file written using JARVIS-Tools package.
data_YFe2O4
_symmetry_space_group_name_H-M  'C2/m'
_cell_length_a       3.48508
_cell_length_b       3.48509
_cell_length_c       24.2402
_cell_angle_alpha    90.8975
_cell_angle_beta     90.8975
_cell_angle_gamma    60.3568

_symmetry_Int_Tables_number  12
_chemical_formula_structural  YFe2O4
_chemical_formula_sum  Y3Fe6O2
_cell_volume  255.8426221244437
_cell_formula_units_Z  3
loop_
  _symmetry_equiv_pos_site_id
 _symmetry_equiv_pos_as_xyz
 1  'x, y, z'
loop_
 _atom_site_type_symbol
 _atom_site_label
 _atom_site_symmetry_multiplicity
 _atom_site_fract_x
 _atom_site_fract_y
 _atom_site_fract_z
 _atom_site_fract_occupancy
 Fe  Fe1  1  0.37352  0.37352  0.46291  1
 Fe  Fe2  1  0.67528  0.67528  0.12399  1
 Fe  Fe3  1  0.32472  0.32472  0.87601  1
 Fe  Fe4  1  0.01583  0.01583  0.21796  1
 Fe  Fe5  1  -0.01583  -0.01583  0.78204  1
 Fe  Fe6  1  0.62648  0.62648  0.53709  1
 O  O1  1  0.66917  0.66917  0.04321  1
 O  O2  1  -0.01011  -0.01011  0.86975  1
 O  O3  1  0.63924  0.63924  0.61499  1
 O  O4  1  0.33083  0.33083  0.95679  1
 O  O5  1  0.31892  0.31892  0.78768  1
 O  O6  1  0.02216  0.02216  0.29909  1
 O  O7  1  0.29029  0.29029  0.53702  1
 O  O8  1  0.36076  0.36076  0.38501  1
 O  O9  1  0.97784  0.97784  0.70091  1
 O  O10  1  0.70971  0.70971  0.46298  1
 O  O11  1  0.01011  0.01011  0.13025  1
 O  O12  1  0.68108  0.68108  0.21232  1
 Y  Y1  1  0.69091  0.69091  0.34170  1
 Y  Y2  1  0.00000  0.00000  0.00000  1
 Y  Y3  1  0.30909  0.30909  0.65830  1
