CIF file written using JARVIS-Tools package.
data_Mg16Al12O
_symmetry_space_group_name_H-M  'R3m'
_cell_length_a       9.03748
_cell_length_b       9.03747
_cell_length_c       9.03747
_cell_angle_alpha    108.839
_cell_angle_beta     108.839
_cell_angle_gamma    108.839

_symmetry_Int_Tables_number  160
_chemical_formula_structural  Mg16Al12O
_chemical_formula_sum  Mg6Al2O
_cell_volume  581.142873153008
_cell_formula_units_Z  1
loop_
  _symmetry_equiv_pos_site_id
 _symmetry_equiv_pos_as_xyz
 1  'x, y, z'
loop_
 _atom_site_type_symbol
 _atom_site_label
 _atom_site_symmetry_multiplicity
 _atom_site_fract_x
 _atom_site_fract_y
 _atom_site_fract_z
 _atom_site_fract_occupancy
 Al  Al1  1  0.83458  0.02590  0.63993  1
 Al  Al2  1  0.20459  0.20459  0.80257  1
 Al  Al3  1  0.35574  0.35574  0.16202  1
 Al  Al4  1  0.35574  0.16202  0.35574  1
 Al  Al5  1  0.83458  0.63993  0.02590  1
 Al  Al6  1  0.02590  0.83458  0.63993  1
 Al  Al7  1  0.20459  0.80257  0.20459  1
 Al  Al8  1  0.80257  0.20459  0.20459  1
 Al  Al9  1  0.63993  0.02590  0.83458  1
 Al  Al10  1  0.63993  0.83458  0.02590  1
 Al  Al11  1  0.16202  0.35574  0.35574  1
 Al  Al12  1  0.02590  0.63993  0.83458  1
 Mg  Mg1  1  0.46432  0.46432  0.69419  1
 Mg  Mg2  1  0.32875  0.00640  0.00640  1
 Mg  Mg3  1  0.00640  0.00640  0.32875  1
 Mg  Mg4  1  0.80621  0.80621  0.80621  1
 Mg  Mg5  1  0.69419  0.46432  0.46432  1
 Mg  Mg6  1  0.59436  0.32973  0.00288  1
 Mg  Mg7  1  0.32973  0.00288  0.59436  1
 Mg  Mg8  1  0.32973  0.59436  0.00288  1
 Mg  Mg9  1  0.00288  0.59436  0.32973  1
 Mg  Mg10  1  0.70171  0.29029  0.70171  1
 Mg  Mg11  1  0.29029  0.70171  0.70171  1
 Mg  Mg12  1  0.59436  0.00288  0.32973  1
 Mg  Mg13  1  0.00640  0.32875  0.00640  1
 Mg  Mg14  1  0.00288  0.32973  0.59436  1
 Mg  Mg15  1  0.46432  0.69419  0.46432  1
 Mg  Mg16  1  0.70171  0.70171  0.29029  1
 O  O1  1  0.59571  0.59571  0.59571  1
