CIF file written using JARVIS-Tools package.
data_Sr2FeCuPb2O6
_symmetry_space_group_name_H-M  'Pmna'
_cell_length_a       5.33251
_cell_length_b       5.41386
_cell_length_c       12.5953
_cell_angle_alpha    90
_cell_angle_beta     90
_cell_angle_gamma    90

_symmetry_Int_Tables_number  53
_chemical_formula_structural  Sr2FeCuPb2O6
_chemical_formula_sum  Sr4Fe2Cu2Pb4O2
_cell_volume  363.61817240033344
_cell_formula_units_Z  2
loop_
  _symmetry_equiv_pos_site_id
 _symmetry_equiv_pos_as_xyz
 1  'x, y, z'
loop_
 _atom_site_type_symbol
 _atom_site_label
 _atom_site_symmetry_multiplicity
 _atom_site_fract_x
 _atom_site_fract_y
 _atom_site_fract_z
 _atom_site_fract_occupancy
 Cu  Cu1  1  0.00000  0.00000  0.00000  1
 Cu  Cu2  1  0.50000  0.50000  0.00000  1
 Fe  Fe1  1  0.50000  0.00000  0.50000  1
 Fe  Fe2  1  0.00000  0.50000  0.50000  1
 O  O1  1  0.50000  0.44465  0.14593  1
 O  O2  1  0.00000  0.94465  0.85407  1
 O  O3  1  0.50000  0.99324  0.31900  1
 O  O4  1  0.50000  0.00676  0.68100  1
 O  O5  1  0.00000  0.50676  0.31900  1
 O  O6  1  0.00000  0.49324  0.68100  1
 O  O7  1  0.75000  0.75000  0.50112  1
 O  O8  1  0.00000  0.05535  0.14593  1
 O  O9  1  0.50000  0.55535  0.85407  1
 O  O10  1  0.25000  0.25000  0.49888  1
 O  O11  1  0.25000  0.75000  0.50112  1
 O  O12  1  0.75000  0.25000  0.49888  1
 Pb  Pb1  1  0.00000  0.49441  0.14453  1
 Pb  Pb2  1  0.50000  0.00559  0.14453  1
 Pb  Pb3  1  0.50000  0.99441  0.85547  1
 Pb  Pb4  1  0.00000  0.50559  0.85547  1
 Sr  Sr1  1  0.50000  0.49964  0.35432  1
 Sr  Sr2  1  0.50000  0.50036  0.64568  1
 Sr  Sr3  1  0.00000  0.00036  0.35432  1
 Sr  Sr4  1  0.00000  -0.00036  0.64568  1
