CIF file written using JARVIS-Tools package.
data_CdH2C3O4
_symmetry_space_group_name_H-M  'P1'
_cell_length_a       3.73692
_cell_length_b       4.19339
_cell_length_c       6.482
_cell_angle_alpha    83.1701
_cell_angle_beta     85.5531
_cell_angle_gamma    79.1861

_symmetry_Int_Tables_number  1
_chemical_formula_structural  CdH2C3O4
_chemical_formula_sum  CdH2C3O4
_cell_volume  98.90474054980642
_cell_formula_units_Z  1
loop_
  _symmetry_equiv_pos_site_id
 _symmetry_equiv_pos_as_xyz
 1  'x, y, z'
loop_
 _atom_site_type_symbol
 _atom_site_label
 _atom_site_symmetry_multiplicity
 _atom_site_fract_x
 _atom_site_fract_y
 _atom_site_fract_z
 _atom_site_fract_occupancy
 C  C1  1  -0.00530  0.31440  0.80535  1
 C  C2  1  0.76611  0.22530  0.20024  1
 C  C3  1  0.93407  0.09364  0.00068  1
 Cd  Cd1  1  0.36717  0.72372  0.50895  1
 H  H1  1  0.74801  0.93797  0.95962  1
 H  H2  1  0.18539  0.91924  0.03333  1
 O  O1  1  0.54561  0.49398  0.20065  1
 O  O2  1  0.83974  0.03246  0.36842  1
 O  O3  1  0.79718  0.59283  0.76400  1
 O  O4  1  0.26300  0.20993  0.67974  1
