CIF file written using JARVIS-Tools package.
data_K3Mo2BrO7
_symmetry_space_group_name_H-M  'P6_3/mmc'
_cell_length_a       5.961
_cell_length_b       5.96099
_cell_length_c       15.6716
_cell_angle_alpha    90
_cell_angle_beta     90
_cell_angle_gamma    120

_symmetry_Int_Tables_number  194
_chemical_formula_structural  K3Mo2BrO7
_chemical_formula_sum  K6Mo4Br2O4
_cell_volume  482.2592018620083
_cell_formula_units_Z  2
loop_
  _symmetry_equiv_pos_site_id
 _symmetry_equiv_pos_as_xyz
 1  'x, y, z'
loop_
 _atom_site_type_symbol
 _atom_site_label
 _atom_site_symmetry_multiplicity
 _atom_site_fract_x
 _atom_site_fract_y
 _atom_site_fract_z
 _atom_site_fract_occupancy
 Br  Br1  1  0.33333  0.66667  0.75000  1
 Br  Br2  1  0.66667  0.33333  0.25000  1
 K  K1  1  0.66667  0.33333  0.45798  1
 K  K2  1  0.33333  0.66667  0.54202  1
 K  K3  1  0.33333  0.66667  0.95798  1
 K  K4  1  0.66667  0.33333  0.75000  1
 K  K5  1  0.66667  0.33333  0.04202  1
 K  K6  1  0.33333  0.66667  0.25000  1
 Mo  Mo1  1  0.00000  0.00000  0.12978  1
 Mo  Mo2  1  0.00000  0.00000  0.37022  1
 Mo  Mo3  1  0.00000  0.00000  0.62978  1
 Mo  Mo4  1  0.00000  0.00000  0.87022  1
 O  O1  1  0.00000  0.00000  0.25000  1
 O  O2  1  0.15864  0.84136  0.40896  1
 O  O3  1  0.84136  0.68272  0.90896  1
 O  O4  1  0.15864  0.31728  0.40896  1
 O  O5  1  0.15864  0.84136  0.09104  1
 O  O6  1  0.84136  0.15864  0.59104  1
 O  O7  1  0.31728  0.15864  0.90896  1
 O  O8  1  0.68272  0.84136  0.09104  1
 O  O9  1  0.00000  0.00000  0.75000  1
 O  O10  1  0.15864  0.31728  0.09104  1
 O  O11  1  0.84136  0.68272  0.59104  1
 O  O12  1  0.31728  0.15864  0.59104  1
 O  O13  1  0.68272  0.84136  0.40896  1
 O  O14  1  0.84136  0.15864  0.90896  1
