CIF file written using JARVIS-Tools package.
data_HfH8C6O4
_symmetry_space_group_name_H-M  'P1'
_cell_length_a       3.82482
_cell_length_b       4.66805
_cell_length_c       9.8057
_cell_angle_alpha    96.1555
_cell_angle_beta     102.971
_cell_angle_gamma    108.643

_symmetry_Int_Tables_number  1
_chemical_formula_structural  HfH8C6O4
_chemical_formula_sum  HfH8C6O4
_cell_volume  158.58979336684516
_cell_formula_units_Z  1
loop_
  _symmetry_equiv_pos_site_id
 _symmetry_equiv_pos_as_xyz
 1  'x, y, z'
loop_
 _atom_site_type_symbol
 _atom_site_label
 _atom_site_symmetry_multiplicity
 _atom_site_fract_x
 _atom_site_fract_y
 _atom_site_fract_z
 _atom_site_fract_occupancy
 C  C1  1  0.47106  0.39925  0.06893  1
 C  C2  1  0.46755  0.39531  0.91435  1
 C  C3  1  0.76382  0.68508  0.17431  1
 C  C4  1  0.75112  0.69351  0.32987  1
 C  C5  1  0.74503  0.42634  0.54304  1
 C  C6  1  0.74451  0.40130  0.38674  1
 H  H1  1  0.17598  0.36439  0.07401  1
 H  H2  1  0.51445  0.18704  0.09406  1
 H  H3  1  0.72076  0.89090  0.14018  1
 H  H4  1  0.05187  0.70497  0.16624  1
 H  H5  1  0.48313  0.20746  0.32633  1
 H  H6  1  -0.00926  0.33752  0.37341  1
 H  H7  1  0.00039  0.88754  0.39781  1
 H  H8  1  0.49875  0.74459  0.34326  1
 Hf  Hf1  1  0.70413  0.81539  0.68687  1
 O  O1  1  0.68175  0.63401  0.88044  1
 O  O2  1  0.68122  0.13932  0.58113  1
 O  O3  1  0.11120  0.64442  0.63675  1
 O  O4  1  0.25989  0.14839  0.82428  1
