CIF file written using JARVIS-Tools package.
data_CdH2C3O4
_symmetry_space_group_name_H-M  'C2'
_cell_length_a       3.69072
_cell_length_b       4.88851
_cell_length_c       6.57353
_cell_angle_alpha    73.1661
_cell_angle_beta     73.6983
_cell_angle_gamma    67.821

_symmetry_Int_Tables_number  5
_chemical_formula_structural  CdH2C3O4
_chemical_formula_sum  CdH2C3O4
_cell_volume  103.13530262469075
_cell_formula_units_Z  1
loop_
  _symmetry_equiv_pos_site_id
 _symmetry_equiv_pos_as_xyz
 1  'x, y, z'
loop_
 _atom_site_type_symbol
 _atom_site_label
 _atom_site_symmetry_multiplicity
 _atom_site_fract_x
 _atom_site_fract_y
 _atom_site_fract_z
 _atom_site_fract_occupancy
 C  C1  1  0.78485  0.96648  0.83805  1
 C  C2  1  0.55400  0.03363  0.23260  1
 C  C3  1  0.44494  0.00006  0.03532  1
 Cd  Cd1  1  0.24475  0.50006  0.53533  1
 H  H1  1  0.19904  0.20532  0.99416  1
 H  H2  1  0.36315  0.79479  0.07648  1
 O  O1  1  0.51865  0.29651  0.24245  1
 O  O2  1  0.66500  0.79657  0.38004  1
 O  O3  1  0.80624  0.20354  0.69062  1
 O  O4  1  0.02220  0.70360  0.82820  1
