CIF file written using JARVIS-Tools package.
data_CdH2C3O4
_symmetry_space_group_name_H-M  'C2'
_cell_length_a       3.90948
_cell_length_b       5.06032
_cell_length_c       5.97262
_cell_angle_alpha    83.7522
_cell_angle_beta     70.8829
_cell_angle_gamma    67.2552

_symmetry_Int_Tables_number  5
_chemical_formula_structural  CdH2C3O4
_chemical_formula_sum  CdH2C3O4
_cell_volume  102.93832493866364
_cell_formula_units_Z  1
loop_
  _symmetry_equiv_pos_site_id
 _symmetry_equiv_pos_as_xyz
 1  'x, y, z'
loop_
 _atom_site_type_symbol
 _atom_site_label
 _atom_site_symmetry_multiplicity
 _atom_site_fract_x
 _atom_site_fract_y
 _atom_site_fract_z
 _atom_site_fract_occupancy
 C  C1  1  0.89403  0.32294  0.79279  1
 C  C2  1  0.77072  0.15537  0.20644  1
 C  C3  1  0.06024  0.23898  0.99960  1
 Cd  Cd1  1  0.38245  0.73906  0.49978  1
 H  H1  1  0.33600  0.05426  0.94624  1
 H  H2  1  0.09822  0.42345  0.05299  1
 O  O1  1  0.46018  0.34779  0.32682  1
 O  O2  1  0.84960  0.88705  0.24317  1
 O  O3  1  0.74166  0.59134  0.75603  1
 O  O4  1  0.89594  0.13081  0.67240  1
