CIF file written using JARVIS-Tools package.
data_YbMn4Cu3O12
_symmetry_space_group_name_H-M  'Im-3'
_cell_length_a       6.2275
_cell_length_b       6.2275
_cell_length_c       6.2275
_cell_angle_alpha    109.471
_cell_angle_beta     109.471
_cell_angle_gamma    109.471

_symmetry_Int_Tables_number  204
_chemical_formula_structural  YbMn4Cu3O12
_chemical_formula_sum  YbMn4Cu3O2
_cell_volume  185.91741862882833
_cell_formula_units_Z  1
loop_
  _symmetry_equiv_pos_site_id
 _symmetry_equiv_pos_as_xyz
 1  'x, y, z'
loop_
 _atom_site_type_symbol
 _atom_site_label
 _atom_site_symmetry_multiplicity
 _atom_site_fract_x
 _atom_site_fract_y
 _atom_site_fract_z
 _atom_site_fract_occupancy
 Cu  Cu1  1  -0.00000  0.50000  0.50000  1
 Cu  Cu2  1  0.50000  0.50000  -0.00000  1
 Cu  Cu3  1  0.50000  0.00000  0.50000  1
 Mn  Mn1  1  0.50000  0.50000  0.50000  1
 Mn  Mn2  1  0.50000  0.00000  -0.00000  1
 Mn  Mn3  1  0.00000  0.00000  0.50000  1
 Mn  Mn4  1  -0.00000  0.50000  -0.00000  1
 O  O1  1  0.30051  0.82142  0.12193  1
 O  O2  1  0.17858  0.47909  0.30051  1
 O  O3  1  0.87807  0.69949  0.17858  1
 O  O4  1  0.69949  0.17858  0.87807  1
 O  O5  1  0.82142  0.52091  0.69949  1
 O  O6  1  0.30051  0.17858  0.47909  1
 O  O7  1  0.52091  0.69949  0.82142  1
 O  O8  1  0.12193  0.30051  0.82142  1
 O  O9  1  0.69949  0.82142  0.52091  1
 O  O10  1  0.82142  0.12193  0.30051  1
 O  O11  1  0.17858  0.87807  0.69949  1
 O  O12  1  0.47909  0.30051  0.17858  1
 Yb  Yb1  1  0.00000  0.00000  0.00000  1
