CIF file written using JARVIS-Tools package.
data_CdH2C3O4
_symmetry_space_group_name_H-M  'P1'
_cell_length_a       3.73666
_cell_length_b       4.19308
_cell_length_c       6.48221
_cell_angle_alpha    83.1723
_cell_angle_beta     85.5556
_cell_angle_gamma    79.1941

_symmetry_Int_Tables_number  1
_chemical_formula_structural  CdH2C3O4
_chemical_formula_sum  CdH2C3O4
_cell_volume  98.8967051100942
_cell_formula_units_Z  1
loop_
  _symmetry_equiv_pos_site_id
 _symmetry_equiv_pos_as_xyz
 1  'x, y, z'
loop_
 _atom_site_type_symbol
 _atom_site_label
 _atom_site_symmetry_multiplicity
 _atom_site_fract_x
 _atom_site_fract_y
 _atom_site_fract_z
 _atom_site_fract_occupancy
 C  C1  1  0.12563  0.22024  0.81123  1
 C  C2  1  0.89699  0.13123  0.20610  1
 C  C3  1  0.95759  0.35193  0.01075  1
 Cd  Cd1  1  0.52460  0.72196  0.50253  1
 H  H1  1  0.14353  0.50779  0.05179  1
 H  H2  1  0.70619  0.52619  0.97807  1
 O  O1  1  0.09449  0.85281  0.24751  1
 O  O2  1  0.62866  0.23574  0.33168  1
 O  O3  1  0.34619  0.95158  0.81085  1
 O  O4  1  0.05198  0.41300  0.64302  1
