CIF file written using JARVIS-Tools package.
data_Ba3Fe2Cl2O5
_symmetry_space_group_name_H-M  'I2_13'
_cell_length_a       8.71917
_cell_length_b       8.719
_cell_length_c       8.71888
_cell_angle_alpha    109.471
_cell_angle_beta     109.471
_cell_angle_gamma    109.472

_symmetry_Int_Tables_number  199
_chemical_formula_structural  Ba3Fe2Cl2O5
_chemical_formula_sum  Ba6Fe4Cl4O0
_cell_volume  510.24437582145816
_cell_formula_units_Z  2
loop_
  _symmetry_equiv_pos_site_id
 _symmetry_equiv_pos_as_xyz
 1  'x, y, z'
loop_
 _atom_site_type_symbol
 _atom_site_label
 _atom_site_symmetry_multiplicity
 _atom_site_fract_x
 _atom_site_fract_y
 _atom_site_fract_z
 _atom_site_fract_occupancy
 Ba  Ba1  1  0.40235  0.25000  0.65235  1
 Ba  Ba2  1  0.65235  0.40233  0.25000  1
 Ba  Ba3  1  0.74999  0.84764  0.09764  1
 Ba  Ba4  1  0.09766  0.75001  0.84767  1
 Ba  Ba5  1  0.25000  0.65236  0.40236  1
 Ba  Ba6  1  0.84766  0.09766  0.75000  1
 Cl  Cl1  1  0.61444  0.61445  0.61445  1
 Cl  Cl2  1  0.49999  -0.00002  0.88553  1
 Cl  Cl3  1  0.00001  0.88555  0.49999  1
 Cl  Cl4  1  0.88555  0.50001  0.00000  1
 Fe  Fe1  1  0.18599  0.18600  0.18600  1
 Fe  Fe2  1  0.50001  0.00000  0.31400  1
 Fe  Fe3  1  0.31401  0.49999  0.00000  1
 Fe  Fe4  1  0.00001  0.31401  0.50000  1
 O  O1  1  0.75000  0.11173  0.36170  1
 O  O2  1  0.52412  0.49998  0.00000  1
 O  O3  1  0.50001  0.00002  0.52414  1
 O  O4  1  -0.00000  0.52413  0.50002  1
 O  O5  1  0.97587  0.97587  0.97587  1
 O  O6  1  0.13830  0.25002  0.38830  1
 O  O7  1  0.24997  0.38828  0.13827  1
 O  O8  1  0.36173  0.75000  0.11171  1
 O  O9  1  0.38827  0.13827  0.24998  1
 O  O10  1  0.11172  0.36171  0.75000  1
