CIF file written using JARVIS-Tools package.
data_Li3Ti4VO8
_symmetry_space_group_name_H-M  'C2/m'
_cell_length_a       5.78675
_cell_length_b       5.78675
_cell_length_c       5.88171
_cell_angle_alpha    61.3685
_cell_angle_beta     61.3685
_cell_angle_gamma    60.688

_symmetry_Int_Tables_number  12
_chemical_formula_structural  Li3Ti4VO8
_chemical_formula_sum  Li3Ti4VO8
_cell_volume  142.83542608210524
_cell_formula_units_Z  1
loop_
  _symmetry_equiv_pos_site_id
 _symmetry_equiv_pos_as_xyz
 1  'x, y, z'
loop_
 _atom_site_type_symbol
 _atom_site_label
 _atom_site_symmetry_multiplicity
 _atom_site_fract_x
 _atom_site_fract_y
 _atom_site_fract_z
 _atom_site_fract_occupancy
 Li  Li1  1  0.00000  0.50000  0.00000  1
 Li  Li2  1  0.00000  0.00000  0.00000  1
 Li  Li3  1  0.50000  -0.00000  0.00000  1
 O  O1  1  0.74904  0.74904  0.75758  1
 O  O2  1  0.25121  0.75762  0.24160  1
 O  O3  1  0.74767  0.74767  0.25956  1
 O  O4  1  0.24238  0.74879  0.75840  1
 O  O5  1  0.75762  0.25121  0.24160  1
 O  O6  1  0.25233  0.25233  0.74044  1
 O  O7  1  0.74879  0.24238  0.75840  1
 O  O8  1  0.25096  0.25096  0.24242  1
 Ti  Ti1  1  0.50000  0.50000  0.00000  1
 Ti  Ti2  1  0.00000  0.00000  0.50000  1
 Ti  Ti3  1  0.00000  0.50000  0.50000  1
 Ti  Ti4  1  0.50000  -0.00000  0.50000  1
 V  V1  1  0.50000  0.50000  0.50000  1
