CIF file written using JARVIS-Tools package.
data_Tb5Ga3
_symmetry_space_group_name_H-M  'I4/mcm'
_cell_length_a       8.90492
_cell_length_b       8.90492
_cell_length_c       8.90492
_cell_angle_alpha    129.633
_cell_angle_beta     129.633
_cell_angle_gamma    73.9941

_symmetry_Int_Tables_number  140
_chemical_formula_structural  Tb5Ga3
_chemical_formula_sum  Tb0Ga6
_cell_volume  408.46273311490734
_cell_formula_units_Z  2
loop_
  _symmetry_equiv_pos_site_id
 _symmetry_equiv_pos_as_xyz
 1  'x, y, z'
loop_
 _atom_site_type_symbol
 _atom_site_label
 _atom_site_symmetry_multiplicity
 _atom_site_fract_x
 _atom_site_fract_y
 _atom_site_fract_z
 _atom_site_fract_occupancy
 Ga  Ga1  1  0.25000  0.25000  -0.00000  1
 Ga  Ga2  1  0.75000  0.75000  -0.00000  1
 Ga  Ga3  1  0.87832  0.37832  0.25663  1
 Ga  Ga4  1  0.12168  0.62168  0.74337  1
 Ga  Ga5  1  0.37832  0.12168  0.50000  1
 Ga  Ga6  1  0.62168  0.87832  0.50000  1
 Tb  Tb1  1  0.50000  0.50000  -0.00000  1
 Tb  Tb2  1  0.00000  0.00000  0.00000  1
 Tb  Tb3  1  0.52188  0.02188  0.84087  1
 Tb  Tb4  1  0.18101  0.68101  0.15913  1
 Tb  Tb5  1  0.02188  0.18101  0.50000  1
 Tb  Tb6  1  0.68101  0.52188  0.50000  1
 Tb  Tb7  1  0.47812  0.97812  0.15913  1
 Tb  Tb8  1  0.81899  0.31899  0.84087  1
 Tb  Tb9  1  0.97812  0.81899  0.50000  1
 Tb  Tb10  1  0.31899  0.47812  0.50000  1
