CIF file written using JARVIS-Tools package.
data_CdH4C4O4
_symmetry_space_group_name_H-M  'P-1'
_cell_length_a       3.98953
_cell_length_b       3.96529
_cell_length_c       7.7918
_cell_angle_alpha    94.2698
_cell_angle_beta     81.0136
_cell_angle_gamma    101.896

_symmetry_Int_Tables_number  2
_chemical_formula_structural  CdH4C4O4
_chemical_formula_sum  CdH4C4O4
_cell_volume  119.02213150938427
_cell_formula_units_Z  1
loop_
  _symmetry_equiv_pos_site_id
 _symmetry_equiv_pos_as_xyz
 1  'x, y, z'
loop_
 _atom_site_type_symbol
 _atom_site_label
 _atom_site_symmetry_multiplicity
 _atom_site_fract_x
 _atom_site_fract_y
 _atom_site_fract_z
 _atom_site_fract_occupancy
 C  C1  1  0.28276  0.65379  0.51681  1
 C  C2  1  0.30121  0.87219  0.68409  1
 C  C3  1  0.31808  0.65948  0.83872  1
 C  C4  1  0.33667  0.87788  0.00599  1
 Cd  Cd1  1  0.80964  0.26586  0.26141  1
 H  H1  1  0.52755  0.08186  0.66532  1
 H  H2  1  0.06668  -0.01772  0.70930  1
 H  H3  1  0.55257  0.54932  0.81350  1
 H  H4  1  0.09170  0.44986  0.85752  1
 O  O1  1  0.52254  0.72461  0.38705  1
 O  O2  1  0.02720  0.40246  0.51167  1
 O  O3  1  0.59231  0.12916  0.01108  1
 O  O4  1  0.09699  0.80710  0.13580  1
