CIF file written using JARVIS-Tools package.
data_MoH2O4
_symmetry_space_group_name_H-M  'P-1'
_cell_length_a       3.69713
_cell_length_b       6.40951
_cell_length_c       7.22149
_cell_angle_alpha    68.5183
_cell_angle_beta     85.0885
_cell_angle_gamma    76.8813

_symmetry_Int_Tables_number  2
_chemical_formula_structural  MoH2O4
_chemical_formula_sum  Mo2H4O8
_cell_volume  155.08246820338056
_cell_formula_units_Z  2
loop_
  _symmetry_equiv_pos_site_id
 _symmetry_equiv_pos_as_xyz
 1  'x, y, z'
loop_
 _atom_site_type_symbol
 _atom_site_label
 _atom_site_symmetry_multiplicity
 _atom_site_fract_x
 _atom_site_fract_y
 _atom_site_fract_z
 _atom_site_fract_occupancy
 H  H1  1  0.48224  0.23055  0.31782  1
 H  H2  1  0.53283  0.75722  0.67968  1
 H  H3  1  0.22742  0.66265  0.83668  1
 H  H4  1  0.78762  0.32513  0.16081  1
 Mo  Mo1  1  0.22910  0.14825  0.79108  1
 Mo  Mo2  1  0.78600  0.83953  0.20643  1
 O  O1  1  0.25506  0.24008  0.53731  1
 O  O2  1  0.76005  0.74773  0.46019  1
 O  O3  1  0.26125  0.93036  0.13089  1
 O  O4  1  0.75384  0.05740  0.86663  1
 O  O5  1  0.11794  0.39816  0.83763  1
 O  O6  1  0.89713  0.58961  0.15991  1
 O  O7  1  0.37547  0.78256  0.79068  1
 O  O8  1  0.63957  0.20522  0.20680  1
