CIF file written using JARVIS-Tools package.
data_Rb2MnSe2
_symmetry_space_group_name_H-M  'Immm'
_cell_length_a       6.71924
_cell_length_b       6.71924
_cell_length_c       6.71924
_cell_angle_alpha    147.253
_cell_angle_beta     109.049
_cell_angle_gamma    80.3611

_symmetry_Int_Tables_number  71
_chemical_formula_structural  Rb2MnSe2
_chemical_formula_sum  Rb2MnSe2
_cell_volume  151.6729461950518
_cell_formula_units_Z  1
loop_
  _symmetry_equiv_pos_site_id
 _symmetry_equiv_pos_as_xyz
 1  'x, y, z'
loop_
 _atom_site_type_symbol
 _atom_site_label
 _atom_site_symmetry_multiplicity
 _atom_site_fract_x
 _atom_site_fract_y
 _atom_site_fract_z
 _atom_site_fract_occupancy
 Mn  Mn1  1  0.00000  0.00000  0.00000  1
 Rb  Rb1  1  0.31112  0.81112  0.50000  1
 Rb  Rb2  1  0.68889  0.18889  0.50000  1
 Se  Se1  1  0.78313  0.50000  0.28313  1
 Se  Se2  1  0.21687  0.50000  0.71688  1
