CIF file written using JARVIS-Tools package.
data_BaThO3
_symmetry_space_group_name_H-M  'Pnma'
_cell_length_a       6.37795
_cell_length_b       6.42323
_cell_length_c       9.02843
_cell_angle_alpha    90
_cell_angle_beta     90
_cell_angle_gamma    90

_symmetry_Int_Tables_number  62
_chemical_formula_structural  BaThO3
_chemical_formula_sum  Ba4Th4O2
_cell_volume  369.86813019930213
_cell_formula_units_Z  4
loop_
  _symmetry_equiv_pos_site_id
 _symmetry_equiv_pos_as_xyz
 1  'x, y, z'
loop_
 _atom_site_type_symbol
 _atom_site_label
 _atom_site_symmetry_multiplicity
 _atom_site_fract_x
 _atom_site_fract_y
 _atom_site_fract_z
 _atom_site_fract_occupancy
 Ba  Ba1  1  0.50941  0.53133  0.25000  1
 Ba  Ba2  1  0.99059  0.03133  0.25000  1
 Ba  Ba3  1  0.49059  0.46867  0.75000  1
 Ba  Ba4  1  0.00941  0.96867  0.75000  1
 O  O1  1  0.40872  0.97172  0.25000  1
 O  O2  1  0.78795  0.78796  0.45067  1
 O  O3  1  0.59128  0.02828  0.75000  1
 O  O4  1  0.90872  0.52828  0.75000  1
 O  O5  1  0.09128  0.47172  0.25000  1
 O  O6  1  0.71205  0.28796  0.45067  1
 O  O7  1  0.21205  0.21204  0.54933  1
 O  O8  1  0.21205  0.21204  0.95067  1
 O  O9  1  0.78795  0.78796  0.04933  1
 O  O10  1  0.28795  0.71204  0.54933  1
 O  O11  1  0.28795  0.71204  0.95067  1
 O  O12  1  0.71205  0.28796  0.04933  1
 Th  Th1  1  0.50000  0.00000  0.00000  1
 Th  Th2  1  0.00000  0.50000  0.50000  1
 Th  Th3  1  0.50000  0.00000  0.50000  1
 Th  Th4  1  0.00000  0.50000  0.00000  1
