CIF file written using JARVIS-Tools package.
data_Mg3O
_symmetry_space_group_name_H-M  'P1'
_cell_length_a       4.44469
_cell_length_b       5.45859
_cell_length_c       5.54666
_cell_angle_alpha    116.977
_cell_angle_beta     111.195
_cell_angle_gamma    36.9669

_symmetry_Int_Tables_number  1
_chemical_formula_structural  Mg3O
_chemical_formula_sum  Mg3O
_cell_volume  72.11944372581526
_cell_formula_units_Z  1
loop_
  _symmetry_equiv_pos_site_id
 _symmetry_equiv_pos_as_xyz
 1  'x, y, z'
loop_
 _atom_site_type_symbol
 _atom_site_label
 _atom_site_symmetry_multiplicity
 _atom_site_fract_x
 _atom_site_fract_y
 _atom_site_fract_z
 _atom_site_fract_occupancy
 Mg  Mg1  1  -0.05875  0.15350  0.14215  1
 Mg  Mg2  1  -0.02993  0.47460  0.81017  1
 Mg  Mg3  1  0.94773  0.81466  0.46540  1
 O  O1  1  0.71144  0.98043  0.80699  1
