CIF file written using JARVIS-Tools package.
data_Y7Rh3
_symmetry_space_group_name_H-M  'P6_3mc'
_cell_length_a       9.77323
_cell_length_b       9.77322
_cell_length_c       6.17505
_cell_angle_alpha    90
_cell_angle_beta     90
_cell_angle_gamma    120

_symmetry_Int_Tables_number  186
_chemical_formula_structural  Y7Rh3
_chemical_formula_sum  Y4Rh6
_cell_volume  510.7949844236466
_cell_formula_units_Z  2
loop_
  _symmetry_equiv_pos_site_id
 _symmetry_equiv_pos_as_xyz
 1  'x, y, z'
loop_
 _atom_site_type_symbol
 _atom_site_label
 _atom_site_symmetry_multiplicity
 _atom_site_fract_x
 _atom_site_fract_y
 _atom_site_fract_z
 _atom_site_fract_occupancy
 Rh  Rh1  1  0.18959  0.37917  0.68145  1
 Rh  Rh2  1  0.81041  0.62083  0.18145  1
 Rh  Rh3  1  0.37917  0.18959  0.18145  1
 Rh  Rh4  1  0.81041  0.18959  0.18145  1
 Rh  Rh5  1  0.62083  0.81041  0.68145  1
 Rh  Rh6  1  0.18959  0.81041  0.68145  1
 Y  Y1  1  0.24765  0.12382  0.75217  1
 Y  Y2  1  0.66667  0.33333  0.95612  1
 Y  Y3  1  0.12382  0.87618  0.25217  1
 Y  Y4  1  0.75235  0.87618  0.25217  1
 Y  Y5  1  0.33333  0.66667  0.45612  1
 Y  Y6  1  0.91746  0.45873  0.44528  1
 Y  Y7  1  0.87618  0.75235  0.75217  1
 Y  Y8  1  0.54127  0.45873  0.44528  1
 Y  Y9  1  0.54127  0.08254  0.44528  1
 Y  Y10  1  0.45873  0.54127  0.94528  1
 Y  Y11  1  0.08254  0.54127  0.94528  1
 Y  Y12  1  0.45873  0.91746  0.94528  1
 Y  Y13  1  0.87618  0.12382  0.75217  1
 Y  Y14  1  0.12382  0.24765  0.25217  1
