CIF file written using JARVIS-Tools package.
data_CdH4C4O4
_symmetry_space_group_name_H-M  'P-1'
_cell_length_a       3.67923
_cell_length_b       4.68711
_cell_length_c       7.5892
_cell_angle_alpha    109.825
_cell_angle_beta     86.1818
_cell_angle_gamma    102.211

_symmetry_Int_Tables_number  2
_chemical_formula_structural  CdH4C4O4
_chemical_formula_sum  CdH4C4O4
_cell_volume  120.33092904305
_cell_formula_units_Z  1
loop_
  _symmetry_equiv_pos_site_id
 _symmetry_equiv_pos_as_xyz
 1  'x, y, z'
loop_
 _atom_site_type_symbol
 _atom_site_label
 _atom_site_symmetry_multiplicity
 _atom_site_fract_x
 _atom_site_fract_y
 _atom_site_fract_z
 _atom_site_fract_occupancy
 C  C1  1  0.58830  0.16061  0.45845  1
 C  C2  1  0.72824  0.10429  0.25891  1
 C  C3  1  0.77276  0.38376  0.19400  1
 C  C4  1  0.91276  0.32748  0.99447  1
 Cd  Cd1  1  0.25057  0.74403  0.72647  1
 H  H1  1  0.99645  0.03379  0.25263  1
 H  H2  1  0.54134  0.90407  0.16566  1
 H  H3  1  -0.04036  0.58398  0.28727  1
 H  H4  1  0.50455  0.45425  0.20027  1
 O  O1  1  0.37283  0.93476  0.49051  1
 O  O2  1  0.68565  0.43066  0.58311  1
 O  O3  1  0.81549  0.05746  0.86978  1
 O  O4  1  0.12820  0.55339  0.96246  1
