CIF file written using JARVIS-Tools package.
data_V6O7F5
_symmetry_space_group_name_H-M  'P1'
_cell_length_a       4.63112
_cell_length_b       5.52372
_cell_length_c       7.6131
_cell_angle_alpha    85.2809
_cell_angle_beta     89.4867
_cell_angle_gamma    89.3847

_symmetry_Int_Tables_number  1
_chemical_formula_structural  V6O7F5
_chemical_formula_sum  V6O7F5
_cell_volume  194.07316992853592
_cell_formula_units_Z  1
loop_
  _symmetry_equiv_pos_site_id
 _symmetry_equiv_pos_as_xyz
 1  'x, y, z'
loop_
 _atom_site_type_symbol
 _atom_site_label
 _atom_site_symmetry_multiplicity
 _atom_site_fract_x
 _atom_site_fract_y
 _atom_site_fract_z
 _atom_site_fract_occupancy
 F  F1  1  0.19537  0.37124  0.43078  1
 F  F2  1  0.69835  0.47565  0.22623  1
 F  F3  1  0.70975  0.79332  0.90232  1
 F  F4  1  0.20092  0.02840  0.77288  1
 F  F5  1  0.30231  0.87119  0.43473  1
 O  O1  1  0.69401  0.13003  0.57005  1
 O  O2  1  0.80701  0.63026  0.55610  1
 O  O3  1  0.79708  0.28990  0.90512  1
 O  O4  1  0.80157  0.97534  0.23748  1
 O  O5  1  0.29599  0.52985  0.76096  1
 O  O6  1  0.20527  0.69927  0.09653  1
 O  O7  1  0.30213  0.20398  0.10718  1
 V  V1  1  0.01531  0.00802  0.02307  1
 V  V2  1  0.96371  0.34306  0.67659  1
 V  V3  1  0.99700  0.68520  0.32022  1
 V  V4  1  0.52976  0.81975  0.66361  1
 V  V5  1  0.46331  0.47802  0.98218  1
 V  V6  1  0.52115  0.16751  0.33395  1
