CIF file written using JARVIS-Tools package.
data_MgB2H8
_symmetry_space_group_name_H-M  'I-4m2'
_cell_length_a       7.48959
_cell_length_b       7.48959
_cell_length_c       7.4896
_cell_angle_alpha    113.313
_cell_angle_beta     113.313
_cell_angle_gamma    102.034

_symmetry_Int_Tables_number  119
_chemical_formula_structural  MgB2H8
_chemical_formula_sum  Mg2B4H6
_cell_volume  319.3972941277609
_cell_formula_units_Z  2
loop_
  _symmetry_equiv_pos_site_id
 _symmetry_equiv_pos_as_xyz
 1  'x, y, z'
loop_
 _atom_site_type_symbol
 _atom_site_label
 _atom_site_symmetry_multiplicity
 _atom_site_fract_x
 _atom_site_fract_y
 _atom_site_fract_z
 _atom_site_fract_occupancy
 B  B1  1  0.61449  0.84268  0.77181  1
 B  B2  1  0.07087  0.84268  0.22819  1
 B  B3  1  0.15732  0.38551  0.22819  1
 B  B4  1  0.15732  0.92913  0.77181  1
 H  H1  1  0.02427  0.74417  0.02955  1
 H  H2  1  0.46252  0.71502  0.74750  1
 H  H3  1  0.96751  0.71502  0.25250  1
 H  H4  1  0.28498  0.53748  0.25250  1
 H  H5  1  0.28498  0.03249  0.74750  1
 H  H6  1  0.25583  0.97573  0.97045  1
 H  H7  1  0.56605  0.91708  0.64897  1
 H  H8  1  0.26811  0.91708  0.35103  1
 H  H9  1  0.00528  0.28538  0.02955  1
 H  H10  1  0.71462  -0.00528  0.97045  1
 H  H11  1  0.08292  0.73189  0.64897  1
 H  H12  1  0.02427  -0.00528  0.28010  1
 H  H13  1  0.71462  0.74417  0.71990  1
 H  H14  1  0.25583  0.28538  0.28010  1
 H  H15  1  0.00528  0.97573  0.71990  1
 H  H16  1  0.08292  0.43395  0.35103  1
 Mg  Mg1  1  0.00000  0.00000  0.00000  1
 Mg  Mg2  1  0.25000  0.75000  0.50000  1
