CIF file written using JARVIS-Tools package.
data_Na2MoO2
_symmetry_space_group_name_H-M  'Immm'
_cell_length_a       5.74854
_cell_length_b       5.74854
_cell_length_c       5.74854
_cell_angle_alpha    151.162
_cell_angle_beta     129.945
_cell_angle_gamma    58.7988

_symmetry_Int_Tables_number  71
_chemical_formula_structural  Na2MoO2
_chemical_formula_sum  Na2MoO2
_cell_volume  69.73805310696488
_cell_formula_units_Z  1
loop_
  _symmetry_equiv_pos_site_id
 _symmetry_equiv_pos_as_xyz
 1  'x, y, z'
loop_
 _atom_site_type_symbol
 _atom_site_label
 _atom_site_symmetry_multiplicity
 _atom_site_fract_x
 _atom_site_fract_y
 _atom_site_fract_z
 _atom_site_fract_occupancy
 Mo  Mo1  1  -0.00000  0.50000  0.50000  1
 Na  Na1  1  0.32901  0.82901  0.50000  1
 Na  Na2  1  0.67099  0.17099  0.50000  1
 O  O1  1  0.14665  0.14665  0.00000  1
 O  O2  1  0.85335  0.85335  0.00000  1
