CIF file written using JARVIS-Tools package.
data_BaSO4
_symmetry_space_group_name_H-M  'Pnma'
_cell_length_a       5.48858
_cell_length_b       7.18732
_cell_length_c       8.87186
_cell_angle_alpha    90
_cell_angle_beta     90
_cell_angle_gamma    90

_symmetry_Int_Tables_number  62
_chemical_formula_structural  BaSO4
_chemical_formula_sum  Ba4S4O6
_cell_volume  349.9781961634086
_cell_formula_units_Z  4
loop_
  _symmetry_equiv_pos_site_id
 _symmetry_equiv_pos_as_xyz
 1  'x, y, z'
loop_
 _atom_site_type_symbol
 _atom_site_label
 _atom_site_symmetry_multiplicity
 _atom_site_fract_x
 _atom_site_fract_y
 _atom_site_fract_z
 _atom_site_fract_occupancy
 Ba  Ba1  1  0.74989  0.90850  0.31635  1
 Ba  Ba2  1  0.25011  0.40850  0.18365  1
 Ba  Ba3  1  0.75011  0.09150  0.81635  1
 Ba  Ba4  1  0.24989  0.59150  0.68365  1
 O  O1  1  0.75033  0.35179  0.58600  1
 O  O2  1  0.24967  0.85179  0.91400  1
 O  O3  1  0.74967  0.64821  0.08600  1
 O  O4  1  0.97073  0.43839  0.91968  1
 O  O5  1  0.75014  0.30102  0.31092  1
 O  O6  1  0.24986  0.80102  0.18908  1
 O  O7  1  0.25033  0.14821  0.41400  1
 O  O8  1  0.25014  0.19898  0.68908  1
 O  O9  1  0.47084  0.93824  0.58045  1
 O  O10  1  0.02916  0.06176  0.08045  1
 O  O11  1  0.74986  0.69898  0.81092  1
 O  O12  1  0.97084  0.56176  0.41955  1
 O  O13  1  0.52927  0.56161  0.41968  1
 O  O14  1  0.47073  0.06161  0.08032  1
 O  O15  1  0.52916  0.43824  0.91955  1
 O  O16  1  0.02927  0.93839  0.58032  1
 S  S1  1  0.25013  0.06028  0.56431  1
 S  S2  1  0.74987  0.56028  0.93569  1
 S  S3  1  0.24987  0.93972  0.06431  1
 S  S4  1  0.75013  0.43972  0.43569  1
