CIF file written using JARVIS-Tools package.
data_CdH6C5O4
_symmetry_space_group_name_H-M  'P1'
_cell_length_a       3.74451
_cell_length_b       4.32697
_cell_length_c       8.77934
_cell_angle_alpha    93.9785
_cell_angle_beta     92.556
_cell_angle_gamma    101.351

_symmetry_Int_Tables_number  1
_chemical_formula_structural  CdH6C5O4
_chemical_formula_sum  CdH6C5O4
_cell_volume  138.88049423518564
_cell_formula_units_Z  1
loop_
  _symmetry_equiv_pos_site_id
 _symmetry_equiv_pos_as_xyz
 1  'x, y, z'
loop_
 _atom_site_type_symbol
 _atom_site_label
 _atom_site_symmetry_multiplicity
 _atom_site_fract_x
 _atom_site_fract_y
 _atom_site_fract_z
 _atom_site_fract_occupancy
 C  C1  1  0.42216  0.06924  0.54639  1
 C  C2  1  0.46047  0.87500  0.40094  1
 C  C3  1  0.59831  0.06016  0.26555  1
 C  C4  1  0.61526  0.82563  0.12917  1
 C  C5  1  0.75280  0.95039  0.98120  1
 Cd  Cd1  1  0.11047  0.46600  0.75852  1
 H  H1  1  0.64712  0.71998  0.43228  1
 H  H2  1  0.19645  0.71515  0.37014  1
 H  H3  1  0.86806  0.20949  0.29690  1
 H  H4  1  0.79529  0.66295  0.15904  1
 H  H5  1  0.41529  0.21838  0.23496  1
 H  H6  1  0.34845  0.66883  0.10175  1
 O  O1  1  0.18118  0.95937  0.63828  1
 O  O2  1  0.62015  0.34546  0.57506  1
 O  O3  1  0.95919  0.22054  0.98151  1
 O  O4  1  0.66786  0.76007  0.85931  1
