CIF file written using JARVIS-Tools package.
data_Li3Mn3O3F5
_symmetry_space_group_name_H-M  'P1'
_cell_length_a       5.79791
_cell_length_b       10.2724
_cell_length_c       6.06012
_cell_angle_alpha    104.517
_cell_angle_beta     61.4308
_cell_angle_gamma    106.36

_symmetry_Int_Tables_number  1
_chemical_formula_structural  Li3Mn3O3F5
_chemical_formula_sum  Li6Mn6O6F0
_cell_volume  301.25764975282937
_cell_formula_units_Z  2
loop_
  _symmetry_equiv_pos_site_id
 _symmetry_equiv_pos_as_xyz
 1  'x, y, z'
loop_
 _atom_site_type_symbol
 _atom_site_label
 _atom_site_symmetry_multiplicity
 _atom_site_fract_x
 _atom_site_fract_y
 _atom_site_fract_z
 _atom_site_fract_occupancy
 F  F1  1  0.78874  0.93987  0.83273  1
 F  F2  1  0.82687  0.45011  0.30689  1
 F  F3  1  0.56045  0.17418  0.56194  1
 F  F4  1  0.08821  0.68574  0.03810  1
 F  F5  1  0.05213  0.17431  0.56257  1
 F  F6  1  0.55702  0.68554  0.04149  1
 F  F7  1  0.79989  0.93127  0.33540  1
 F  F8  1  0.30155  0.42949  0.82673  1
 F  F9  1  0.31584  0.45059  0.30797  1
 F  F10  1  0.32016  0.93989  0.82992  1
 Li  Li1  1  0.18364  0.56808  0.19940  1
 Li  Li2  1  0.67677  0.06598  0.71325  1
 Li  Li3  1  0.88353  0.61378  0.84371  1
 Li  Li4  1  0.37967  0.11086  0.35154  1
 Li  Li5  1  -0.00122  0.01493  0.01876  1
 Li  Li6  1  0.50369  0.51781  0.51180  1
 Mn  Mn1  1  0.94229  0.80808  0.44223  1
 Mn  Mn2  1  0.93711  0.31182  0.43801  1
 Mn  Mn3  1  0.44197  0.30748  0.94424  1
 Mn  Mn4  1  0.92132  0.30742  0.94423  1
 Mn  Mn5  1  0.43776  0.81232  0.93706  1
 Mn  Mn6  1  0.42216  0.80759  0.44398  1
 O  O1  1  0.80472  0.40850  0.79866  1
 O  O2  1  0.07119  0.21680  0.07501  1
 O  O3  1  0.56788  0.72098  0.59064  1
 O  O4  1  0.31038  0.90388  0.27997  1
 O  O5  1  0.07884  0.69598  0.53224  1
 O  O6  1  0.57744  0.19668  0.04154  1
