CIF file written using JARVIS-Tools package.
data_CdH6C5O4
_symmetry_space_group_name_H-M  'P1'
_cell_length_a       4.02887
_cell_length_b       4.56831
_cell_length_c       8.50062
_cell_angle_alpha    74.2494
_cell_angle_beta     84.3782
_cell_angle_gamma    70.5786

_symmetry_Int_Tables_number  1
_chemical_formula_structural  CdH6C5O4
_chemical_formula_sum  CdH6C5O4
_cell_volume  142.00734214734572
_cell_formula_units_Z  1
loop_
  _symmetry_equiv_pos_site_id
 _symmetry_equiv_pos_as_xyz
 1  'x, y, z'
loop_
 _atom_site_type_symbol
 _atom_site_label
 _atom_site_symmetry_multiplicity
 _atom_site_fract_x
 _atom_site_fract_y
 _atom_site_fract_z
 _atom_site_fract_occupancy
 C  C1  1  0.76906  0.77860  0.53183  1
 C  C2  1  0.93313  0.78421  0.36209  1
 C  C3  1  0.93839  0.49877  0.30100  1
 C  C4  1  0.11378  0.48396  0.13449  1
 C  C5  1  0.96489  0.75431  0.98540  1
 Cd  Cd1  1  0.41162  0.27414  0.76180  1
 H  H1  1  0.78748  0.00942  0.27849  1
 H  H2  1  0.20348  0.78792  0.36886  1
 H  H3  1  0.66789  0.49661  0.29925  1
 H  H4  1  0.39402  0.45785  0.13670  1
 H  H5  1  0.07889  0.28047  0.39073  1
 H  H6  1  0.11122  0.26329  0.10609  1
 O  O1  1  0.85116  0.50846  0.64324  1
 O  O2  1  0.55501  0.03808  0.55327  1
 O  O3  1  0.67276  0.97126  -0.00154  1
 O  O4  1  0.13972  0.75520  0.85134  1
