CIF file written using JARVIS-Tools package.
data_NaPtO2
_symmetry_space_group_name_H-M  'C2/m'
_cell_length_a       3.59378
_cell_length_b       3.59378
_cell_length_c       6.18474
_cell_angle_alpha    119.232
_cell_angle_beta     119.232
_cell_angle_gamma    50.6032

_symmetry_Int_Tables_number  12
_chemical_formula_structural  NaPtO2
_chemical_formula_sum  NaPtO2
_cell_volume  51.946448450120485
_cell_formula_units_Z  1
loop_
  _symmetry_equiv_pos_site_id
 _symmetry_equiv_pos_as_xyz
 1  'x, y, z'
loop_
 _atom_site_type_symbol
 _atom_site_label
 _atom_site_symmetry_multiplicity
 _atom_site_fract_x
 _atom_site_fract_y
 _atom_site_fract_z
 _atom_site_fract_occupancy
 Na  Na1  1  0.50000  0.50000  0.50000  1
 O  O1  1  0.33615  0.33615  0.76023  1
 O  O2  1  0.66385  0.66385  0.23977  1
 Pt  Pt1  1  0.00000  0.00000  0.00000  1
