CIF file written using JARVIS-Tools package.
data_CdH6C5O4
_symmetry_space_group_name_H-M  'P1'
_cell_length_a       3.77631
_cell_length_b       4.63983
_cell_length_c       9.04586
_cell_angle_alpha    73.071
_cell_angle_beta     91.3427
_cell_angle_gamma    71.2104

_symmetry_Int_Tables_number  1
_chemical_formula_structural  CdH6C5O4
_chemical_formula_sum  CdH6C5O4
_cell_volume  142.3402632268051
_cell_formula_units_Z  1
loop_
  _symmetry_equiv_pos_site_id
 _symmetry_equiv_pos_as_xyz
 1  'x, y, z'
loop_
 _atom_site_type_symbol
 _atom_site_label
 _atom_site_symmetry_multiplicity
 _atom_site_fract_x
 _atom_site_fract_y
 _atom_site_fract_z
 _atom_site_fract_occupancy
 C  C1  1  0.38107  0.84778  0.43589  1
 C  C2  1  0.49382  0.58478  0.59267  1
 C  C3  1  0.32541  0.69301  0.72834  1
 C  C4  1  0.26375  0.42337  0.86133  1
 C  C5  1  0.57673  0.23906  0.99642  1
 Cd  Cd1  1  0.03500  0.54894  0.21335  1
 H  H1  1  0.40715  0.38901  0.57781  1
 H  H2  1  0.80350  0.48416  0.61142  1
 H  H3  1  0.04699  0.87854  0.68245  1
 H  H4  1  0.01572  0.53877  0.91011  1
 H  H5  1  0.49226  0.81008  0.77438  1
 H  H6  1  0.20331  0.24917  0.81460  1
 O  O1  1  0.45318  0.76820  0.31173  1
 O  O2  1  0.21091  0.13411  0.43343  1
 O  O3  1  0.59082  0.36081  0.10689  1
 O  O4  1  0.80687  0.97081  -0.00352  1
