CIF file written using JARVIS-Tools package.
data_AgClO4
_symmetry_space_group_name_H-M  'Pnma'
_cell_length_a       5.48056
_cell_length_b       7.05179
_cell_length_c       7.95328
_cell_angle_alpha    90
_cell_angle_beta     90
_cell_angle_gamma    90

_symmetry_Int_Tables_number  62
_chemical_formula_structural  AgClO4
_chemical_formula_sum  Ag4Cl4O6
_cell_volume  307.3762021128019
_cell_formula_units_Z  4
loop_
  _symmetry_equiv_pos_site_id
 _symmetry_equiv_pos_as_xyz
 1  'x, y, z'
loop_
 _atom_site_type_symbol
 _atom_site_label
 _atom_site_symmetry_multiplicity
 _atom_site_fract_x
 _atom_site_fract_y
 _atom_site_fract_z
 _atom_site_fract_occupancy
 Ag  Ag1  1  0.25000  0.18020  0.67690  1
 Ag  Ag2  1  0.25000  0.31980  0.17690  1
 Ag  Ag3  1  0.75000  0.81980  0.32310  1
 Ag  Ag4  1  0.75000  0.68020  0.82310  1
 Cl  Cl1  1  0.25000  0.68176  0.56458  1
 Cl  Cl2  1  0.25000  0.81824  0.06458  1
 Cl  Cl3  1  0.75000  0.31824  0.43542  1
 Cl  Cl4  1  0.75000  0.18176  0.93542  1
 O  O1  1  0.53037  0.30497  0.92795  1
 O  O2  1  0.96963  0.19503  0.42795  1
 O  O3  1  0.03037  0.69503  0.07205  1
 O  O4  1  0.75000  0.07459  0.09158  1
 O  O5  1  0.46963  0.69503  0.07205  1
 O  O6  1  0.03037  0.80497  0.57205  1
 O  O7  1  0.46963  0.80497  0.57205  1
 O  O8  1  0.75000  0.44538  0.28979  1
 O  O9  1  0.25000  0.55462  0.71021  1
 O  O10  1  0.25000  0.94538  0.21021  1
 O  O11  1  0.96963  0.30497  0.92795  1
 O  O12  1  0.75000  0.05462  0.78979  1
 O  O13  1  0.25000  0.92541  0.90842  1
 O  O14  1  0.25000  0.57459  0.40842  1
 O  O15  1  0.53037  0.19503  0.42795  1
 O  O16  1  0.75000  0.42541  0.59158  1
