CIF file written using JARVIS-Tools package.
data_Li3V2C4O12
_symmetry_space_group_name_H-M  'P1'
_cell_length_a       5.18466
_cell_length_b       6.16991
_cell_length_c       8.5274
_cell_angle_alpha    83.3326
_cell_angle_beta     72.6393
_cell_angle_gamma    66.1878

_symmetry_Int_Tables_number  1
_chemical_formula_structural  Li3V2C4O12
_chemical_formula_sum  Li3V2C4O2
_cell_volume  238.1892561020919
_cell_formula_units_Z  1
loop_
  _symmetry_equiv_pos_site_id
 _symmetry_equiv_pos_as_xyz
 1  'x, y, z'
loop_
 _atom_site_type_symbol
 _atom_site_label
 _atom_site_symmetry_multiplicity
 _atom_site_fract_x
 _atom_site_fract_y
 _atom_site_fract_z
 _atom_site_fract_occupancy
 C  C1  1  0.74209  0.39710  0.20713  1
 C  C2  1  0.72271  0.89396  0.29962  1
 C  C3  1  0.91799  0.11330  0.70519  1
 C  C4  1  0.33273  0.60668  0.79339  1
 Li  Li1  1  0.26240  0.52433  0.14812  1
 Li  Li2  1  0.16304  0.05420  0.33394  1
 Li  Li3  1  0.55494  0.93392  0.68370  1
 O  O1  1  0.76240  0.34030  0.06303  1
 O  O2  1  0.13598  0.07924  0.75996  1
 O  O3  1  0.56788  0.94370  0.19542  1
 O  O4  1  0.95928  0.39679  0.25532  1
 O  O5  1  0.98274  0.89821  0.24103  1
 O  O6  1  0.61885  0.84283  0.45059  1
 O  O7  1  0.24264  0.56555  0.67804  1
 O  O8  1  0.59861  0.60118  0.74789  1
 O  O9  1  0.48925  0.45836  0.31881  1
 O  O10  1  0.69556  0.07948  0.81012  1
 O  O11  1  0.90897  0.17229  0.55449  1
 O  O12  1  0.16771  0.65696  0.94351  1
 V  V1  1  0.63032  0.50369  0.50857  1
 V  V2  1  0.88734  0.99837  0.99762  1
