CIF file written using JARVIS-Tools package.
data_NbO3
_symmetry_space_group_name_H-M  'P1'
_cell_length_a       3.83753
_cell_length_b       4.67513
_cell_length_c       3.35329
_cell_angle_alpha    71.6303
_cell_angle_beta     65.9267
_cell_angle_gamma    55.2507

_symmetry_Int_Tables_number  1
_chemical_formula_structural  NbO3
_chemical_formula_sum  NbO3
_cell_volume  44.85767450049704
_cell_formula_units_Z  1
loop_
  _symmetry_equiv_pos_site_id
 _symmetry_equiv_pos_as_xyz
 1  'x, y, z'
loop_
 _atom_site_type_symbol
 _atom_site_label
 _atom_site_symmetry_multiplicity
 _atom_site_fract_x
 _atom_site_fract_y
 _atom_site_fract_z
 _atom_site_fract_occupancy
 Nb  Nb1  1  0.88818  0.77417  -0.03605  1
 O  O1  1  0.24013  0.86085  0.24263  1
 O  O2  1  0.51532  0.26489  0.89639  1
 O  O3  1  0.86803  0.54798  0.57490  1
