CIF file written using JARVIS-Tools package.
data_CdH8C6O4
_symmetry_space_group_name_H-M  'P-1'
_cell_length_a       3.72255
_cell_length_b       4.5705
_cell_length_c       10.0302
_cell_angle_alpha    92.3315
_cell_angle_beta     93.0228
_cell_angle_gamma    107.274

_symmetry_Int_Tables_number  2
_chemical_formula_structural  CdH8C6O4
_chemical_formula_sum  CdH8C6O4
_cell_volume  162.44547771864134
_cell_formula_units_Z  1
loop_
  _symmetry_equiv_pos_site_id
 _symmetry_equiv_pos_as_xyz
 1  'x, y, z'
loop_
 _atom_site_type_symbol
 _atom_site_label
 _atom_site_symmetry_multiplicity
 _atom_site_fract_x
 _atom_site_fract_y
 _atom_site_fract_z
 _atom_site_fract_occupancy
 C  C1  1  0.70740  0.25774  0.97875  1
 C  C2  1  0.44355  0.20995  0.35231  1
 C  C3  1  0.43419  0.44445  0.46388  1
 C  C4  1  0.30505  0.31488  0.59598  1
 C  C5  1  0.56904  0.36256  0.22243  1
 C  C6  1  0.57844  0.12809  0.11086  1
 Cd  Cd1  1  0.00623  0.78629  0.78737  1
 H  H1  1  0.63468  0.08027  0.38541  1
 H  H2  1  0.84945  0.53213  0.24059  1
 H  H3  1  0.30333  0.95334  0.09109  1
 H  H4  1  0.37791  0.49223  0.18934  1
 H  H5  1  0.16313  0.04040  0.33415  1
 H  H6  1  0.70935  0.61912  0.48367  1
 H  H7  1  0.24224  0.57654  0.43369  1
 H  H8  1  0.77053  0.99610  0.14102  1
 O  O1  1  0.11323  0.03492  0.59674  1
 O  O2  1  0.89906  0.53774  0.97800  1
 O  O3  1  0.38717  0.49888  0.70169  1
 O  O4  1  0.62530  0.07379  0.87303  1
