CIF file written using JARVIS-Tools package.
data_LiDySn
_symmetry_space_group_name_H-M  'P6_3mc'
_cell_length_a       9.31599
_cell_length_b       9.31598
_cell_length_c       7.30174
_cell_angle_alpha    90
_cell_angle_beta     90
_cell_angle_gamma    120

_symmetry_Int_Tables_number  186
_chemical_formula_structural  LiDySn
_chemical_formula_sum  Li8Dy8Sn8
_cell_volume  548.8005331979004
_cell_formula_units_Z  8
loop_
  _symmetry_equiv_pos_site_id
 _symmetry_equiv_pos_as_xyz
 1  'x, y, z'
loop_
 _atom_site_type_symbol
 _atom_site_label
 _atom_site_symmetry_multiplicity
 _atom_site_fract_x
 _atom_site_fract_y
 _atom_site_fract_z
 _atom_site_fract_occupancy
 Dy  Dy1  1  0.48851  0.51149  0.99379  1
 Dy  Dy2  1  0.51149  0.02298  0.49379  1
 Dy  Dy3  1  0.51149  0.48851  0.49379  1
 Dy  Dy4  1  0.97702  0.48851  0.49379  1
 Dy  Dy5  1  0.48851  0.97702  0.99379  1
 Dy  Dy6  1  0.02298  0.51149  0.99379  1
 Dy  Dy7  1  0.00000  0.00000  0.49908  1
 Dy  Dy8  1  0.00000  0.00000  -0.00092  1
 Li  Li1  1  0.16678  0.33356  0.28874  1
 Li  Li2  1  0.33333  0.66667  0.67596  1
 Li  Li3  1  0.33356  0.16678  0.78874  1
 Li  Li4  1  0.83322  0.16678  0.78874  1
 Li  Li5  1  0.83322  0.66644  0.78874  1
 Li  Li6  1  0.66644  0.83322  0.28874  1
 Li  Li7  1  0.16678  0.83322  0.28874  1
 Li  Li8  1  0.66667  0.33333  0.17596  1
 Sn  Sn1  1  0.33333  0.66667  0.25944  1
 Sn  Sn2  1  0.16670  0.33340  0.72964  1
 Sn  Sn3  1  0.16670  0.83330  0.72964  1
 Sn  Sn4  1  0.66660  0.83330  0.72964  1
 Sn  Sn5  1  0.83330  0.66660  0.22964  1
 Sn  Sn6  1  0.83330  0.16670  0.22964  1
 Sn  Sn7  1  0.33340  0.16670  0.22964  1
 Sn  Sn8  1  0.66667  0.33333  0.75944  1
