CIF file written using JARVIS-Tools package.
data_ZnCoO2
_symmetry_space_group_name_H-M  'R-3m'
_cell_length_a       2.98018
_cell_length_b       8.54719
_cell_length_c       6.1259
_cell_angle_alpha    87.8086
_cell_angle_beta     90
_cell_angle_gamma    90

_symmetry_Int_Tables_number  166
_chemical_formula_structural  ZnCoO2
_chemical_formula_sum  Zn4Co4O8
_cell_volume  155.92577133811375
_cell_formula_units_Z  4
loop_
  _symmetry_equiv_pos_site_id
 _symmetry_equiv_pos_as_xyz
 1  'x, y, z'
loop_
 _atom_site_type_symbol
 _atom_site_label
 _atom_site_symmetry_multiplicity
 _atom_site_fract_x
 _atom_site_fract_y
 _atom_site_fract_z
 _atom_site_fract_occupancy
 Co  Co1  1  0.00000  -0.00000  0.50000  1
 Co  Co2  1  0.50000  0.25000  0.25000  1
 Co  Co3  1  0.00000  0.50000  0.00000  1
 Co  Co4  1  0.50000  0.75000  0.75000  1
 O  O1  1  -0.00000  0.24995  0.49990  1
 O  O2  1  0.50000  0.49995  0.24990  1
 O  O3  1  -0.00000  0.74995  -0.00010  1
 O  O4  1  0.50000  -0.00005  0.74990  1
 O  O5  1  0.00000  0.75005  0.50010  1
 O  O6  1  0.50000  0.00005  0.25010  1
 O  O7  1  0.00000  0.25005  0.00010  1
 O  O8  1  0.50000  0.50005  0.75010  1
 Zn  Zn1  1  0.00000  0.00000  0.00000  1
 Zn  Zn2  1  0.50000  0.25000  0.75000  1
 Zn  Zn3  1  0.00000  0.50000  0.50000  1
 Zn  Zn4  1  0.50000  0.75000  0.25000  1
