CIF file written using JARVIS-Tools package.
data_HoCrB4
_symmetry_space_group_name_H-M  'Pbam'
_cell_length_a       3.44748
_cell_length_b       5.89963
_cell_length_c       11.3989
_cell_angle_alpha    90
_cell_angle_beta     90
_cell_angle_gamma    90

_symmetry_Int_Tables_number  55
_chemical_formula_structural  HoCrB4
_chemical_formula_sum  Ho4Cr4B6
_cell_volume  231.8408869992324
_cell_formula_units_Z  4
loop_
  _symmetry_equiv_pos_site_id
 _symmetry_equiv_pos_as_xyz
 1  'x, y, z'
loop_
 _atom_site_type_symbol
 _atom_site_label
 _atom_site_symmetry_multiplicity
 _atom_site_fract_x
 _atom_site_fract_y
 _atom_site_fract_z
 _atom_site_fract_occupancy
 B  B1  1  0.50000  0.38650  0.04697  1
 B  B2  1  0.50000  0.78075  0.18412  1
 B  B3  1  0.50000  0.21925  0.81588  1
 B  B4  1  0.50000  0.28075  0.31588  1
 B  B5  1  0.50000  0.47482  0.19188  1
 B  B6  1  0.50000  0.86303  0.03241  1
 B  B7  1  0.50000  0.13697  0.96759  1
 B  B8  1  0.50000  0.71925  0.68412  1
 B  B9  1  0.50000  0.63697  0.53241  1
 B  B10  1  0.50000  0.88650  0.45303  1
 B  B11  1  0.50000  0.11350  0.54697  1
 B  B12  1  0.50000  0.52518  0.80812  1
 B  B13  1  0.50000  0.61350  0.95303  1
 B  B14  1  0.50000  0.97482  0.30812  1
 B  B15  1  0.50000  0.02518  0.69188  1
 B  B16  1  0.50000  0.36303  0.46759  1
 Cr  Cr1  1  0.00000  0.87803  0.57930  1
 Cr  Cr2  1  0.00000  0.12197  0.42070  1
 Cr  Cr3  1  0.00000  0.37803  0.92070  1
 Cr  Cr4  1  0.00000  0.62197  0.07930  1
 Ho  Ho1  1  0.00000  0.87570  0.84931  1
 Ho  Ho2  1  0.00000  0.12430  0.15069  1
 Ho  Ho3  1  0.00000  0.37570  0.65069  1
 Ho  Ho4  1  0.00000  0.62430  0.34931  1
