CIF file written using JARVIS-Tools package.
data_Mn6O7F5
_symmetry_space_group_name_H-M  'Pm'
_cell_length_a       8.93623
_cell_length_b       4.63924
_cell_length_c       4.65653
_cell_angle_alpha    85.2403
_cell_angle_beta     90
_cell_angle_gamma    90

_symmetry_Int_Tables_number  6
_chemical_formula_structural  Mn6O7F5
_chemical_formula_sum  Mn6O7F5
_cell_volume  192.38135921502695
_cell_formula_units_Z  1
loop_
  _symmetry_equiv_pos_site_id
 _symmetry_equiv_pos_as_xyz
 1  'x, y, z'
loop_
 _atom_site_type_symbol
 _atom_site_label
 _atom_site_symmetry_multiplicity
 _atom_site_fract_x
 _atom_site_fract_y
 _atom_site_fract_z
 _atom_site_fract_occupancy
 F  F1  1  0.34549  0.20962  0.19735  1
 F  F2  1  0.50000  0.71733  0.30730  1
 F  F3  1  0.00000  0.78855  0.80241  1
 F  F4  1  0.65451  0.20962  0.19735  1
 F  F5  1  0.00000  0.16826  0.17494  1
 Mn  Mn1  1  0.17425  0.98098  0.99118  1
 Mn  Mn2  1  0.00000  0.48767  0.49396  1
 Mn  Mn3  1  0.32312  0.51168  0.52764  1
 Mn  Mn4  1  0.50000  0.01171  0.96576  1
 Mn  Mn5  1  0.82575  0.98098  0.99118  1
 Mn  Mn6  1  0.67688  0.51168  0.52764  1
 O  O1  1  0.83455  0.68989  0.30597  1
 O  O2  1  0.16545  0.68989  0.30597  1
 O  O3  1  0.16419  0.29406  0.69596  1
 O  O4  1  0.33950  0.81602  0.81293  1
 O  O5  1  0.66050  0.81602  0.81293  1
 O  O6  1  0.83581  0.29406  0.69596  1
 O  O7  1  0.50000  0.32197  0.69358  1
