CIF file written using JARVIS-Tools package.
data_CdH8C6O4
_symmetry_space_group_name_H-M  'P-1'
_cell_length_a       3.73898
_cell_length_b       4.60638
_cell_length_c       10.4086
_cell_angle_alpha    82.2399
_cell_angle_beta     82.4362
_cell_angle_gamma    69.5174

_symmetry_Int_Tables_number  2
_chemical_formula_structural  CdH8C6O4
_chemical_formula_sum  CdH8C6O4
_cell_volume  165.70892781125391
_cell_formula_units_Z  1
loop_
  _symmetry_equiv_pos_site_id
 _symmetry_equiv_pos_as_xyz
 1  'x, y, z'
loop_
 _atom_site_type_symbol
 _atom_site_label
 _atom_site_symmetry_multiplicity
 _atom_site_fract_x
 _atom_site_fract_y
 _atom_site_fract_z
 _atom_site_fract_occupancy
 C  C1  1  0.36294  0.73986  0.98549  1
 C  C2  1  0.13105  0.80669  0.36074  1
 C  C3  1  0.25250  0.58488  0.48240  1
 C  C4  1  0.07932  0.71810  0.61093  1
 C  C5  1  0.31128  0.65127  0.23567  1
 C  C6  1  0.18977  0.87308  0.11402  1
 Cd  Cd1  1  0.72112  0.22899  0.79821  1
 H  H1  1  0.81660  0.89391  0.36189  1
 H  H2  1  0.23029  0.44399  0.23429  1
 H  H3  1  0.25628  0.08791  0.11328  1
 H  H4  1  0.62573  0.56408  0.23452  1
 H  H5  1  0.21207  0.01395  0.36213  1
 H  H6  1  0.18595  0.37007  0.48314  1
 H  H7  1  0.56597  0.50259  0.48449  1
 H  H8  1  0.87630  0.95533  0.11194  1
 O  O1  1  0.12212  0.53087  0.71614  1
 O  O2  1  0.54266  0.44981  0.98655  1
 O  O3  1  0.89961  0.00815  0.60987  1
 O  O4  1  0.32014  0.92709  0.88028  1
