CIF file written using JARVIS-Tools package.
data_LiFeF3
_symmetry_space_group_name_H-M  'C2/c'
_cell_length_a       7.07735
_cell_length_b       7.07735
_cell_length_c       5.34513
_cell_angle_alpha    74.742
_cell_angle_beta     74.742
_cell_angle_gamma    78.0063

_symmetry_Int_Tables_number  15
_chemical_formula_structural  LiFeF3
_chemical_formula_sum  Li4Fe4F2
_cell_volume  246.41311746055047
_cell_formula_units_Z  4
loop_
  _symmetry_equiv_pos_site_id
 _symmetry_equiv_pos_as_xyz
 1  'x, y, z'
loop_
 _atom_site_type_symbol
 _atom_site_label
 _atom_site_symmetry_multiplicity
 _atom_site_fract_x
 _atom_site_fract_y
 _atom_site_fract_z
 _atom_site_fract_occupancy
 F  F1  1  0.42740  0.28640  0.81250  1
 F  F2  1  0.98089  0.79161  0.17030  1
 F  F3  1  0.20839  0.01911  0.32970  1
 F  F4  1  0.86648  0.33863  0.35638  1
 F  F5  1  0.57260  0.71360  0.18750  1
 F  F6  1  0.79161  0.98089  0.67030  1
 F  F7  1  0.71360  0.57260  0.68750  1
 F  F8  1  0.28640  0.42740  0.31250  1
 F  F9  1  0.66137  0.13352  0.14362  1
 F  F10  1  0.01911  0.20839  0.82970  1
 F  F11  1  0.13352  0.66137  0.64362  1
 F  F12  1  0.33863  0.86648  0.85638  1
 Fe  Fe1  1  0.07531  0.92469  0.75000  1
 Fe  Fe2  1  0.71624  0.28376  0.75000  1
 Fe  Fe3  1  0.28376  0.71624  0.25000  1
 Fe  Fe4  1  0.92469  0.07531  0.25000  1
 Li  Li1  1  0.20588  0.38577  0.68269  1
 Li  Li2  1  0.38577  0.20588  0.18269  1
 Li  Li3  1  0.61423  0.79412  0.81731  1
 Li  Li4  1  0.79412  0.61423  0.31731  1
