CIF file written using JARVIS-Tools package.
data_YbTm2Se4
_symmetry_space_group_name_H-M  'Pnma'
_cell_length_a       3.99373
_cell_length_b       13.3292
_cell_length_c       13.5835
_cell_angle_alpha    90
_cell_angle_beta     90
_cell_angle_gamma    90

_symmetry_Int_Tables_number  62
_chemical_formula_structural  YbTm2Se4
_chemical_formula_sum  Yb4Tm8Se6
_cell_volume  723.0960709063768
_cell_formula_units_Z  4
loop_
  _symmetry_equiv_pos_site_id
 _symmetry_equiv_pos_as_xyz
 1  'x, y, z'
loop_
 _atom_site_type_symbol
 _atom_site_label
 _atom_site_symmetry_multiplicity
 _atom_site_fract_x
 _atom_site_fract_y
 _atom_site_fract_z
 _atom_site_fract_occupancy
 Se  Se1  1  0.25000  0.53526  0.87924  1
 Se  Se2  1  0.25000  0.21435  0.23787  1
 Se  Se3  1  0.75000  0.96474  0.37924  1
 Se  Se4  1  0.75000  0.78565  0.76213  1
 Se  Se5  1  0.75000  0.28565  0.73787  1
 Se  Se6  1  0.25000  0.25708  0.97906  1
 Se  Se7  1  0.25000  0.75708  0.52094  1
 Se  Se8  1  0.25000  0.71435  0.26213  1
 Se  Se9  1  0.75000  0.24292  0.47906  1
 Se  Se10  1  0.25000  0.96997  0.11450  1
 Se  Se11  1  0.75000  0.53003  0.61450  1
 Se  Se12  1  0.75000  0.03003  0.88550  1
 Se  Se13  1  0.25000  0.03526  0.62076  1
 Se  Se14  1  0.75000  0.46474  0.12076  1
 Se  Se15  1  0.25000  0.46997  0.38550  1
 Se  Se16  1  0.75000  0.74292  0.02094  1
 Tm  Tm1  1  0.75000  0.39297  0.91938  1
 Tm  Tm2  1  0.25000  0.10703  0.41938  1
 Tm  Tm3  1  0.25000  0.60703  0.08062  1
 Tm  Tm4  1  0.75000  0.89297  0.58062  1
 Tm  Tm5  1  0.25000  0.64840  0.69932  1
 Tm  Tm6  1  0.25000  0.14840  0.80068  1
 Tm  Tm7  1  0.75000  0.85160  0.19932  1
 Tm  Tm8  1  0.75000  0.35160  0.30068  1
 Yb  Yb1  1  0.75000  0.13077  0.08546  1
 Yb  Yb2  1  0.75000  0.63077  0.41454  1
 Yb  Yb3  1  0.25000  0.86923  0.91454  1
 Yb  Yb4  1  0.25000  0.36923  0.58546  1
