CIF file written using JARVIS-Tools package.
data_CdH8C6O4
_symmetry_space_group_name_H-M  'P-1'
_cell_length_a       4.02849
_cell_length_b       4.04985
_cell_length_c       10.2854
_cell_angle_alpha    86.596
_cell_angle_beta     80.0759
_cell_angle_gamma    76.9835

_symmetry_Int_Tables_number  2
_chemical_formula_structural  CdH8C6O4
_chemical_formula_sum  CdH8C6O4
_cell_volume  161.01007440752522
_cell_formula_units_Z  1
loop_
  _symmetry_equiv_pos_site_id
 _symmetry_equiv_pos_as_xyz
 1  'x, y, z'
loop_
 _atom_site_type_symbol
 _atom_site_label
 _atom_site_symmetry_multiplicity
 _atom_site_fract_x
 _atom_site_fract_y
 _atom_site_fract_z
 _atom_site_fract_occupancy
 C  C1  1  0.70409  0.87560  0.98525  1
 C  C2  1  0.74468  0.64222  0.35638  1
 C  C3  1  0.76070  0.84340  0.47621  1
 C  C4  1  0.77444  0.63073  0.60197  1
 C  C5  1  0.73349  0.86409  0.23086  1
 C  C6  1  0.71752  0.66293  0.11102  1
 Cd  Cd1  1  0.23920  0.25311  0.79361  1
 H  H1  1  -0.02921  0.42931  0.34121  1
 H  H2  1  0.96327  -0.02516  0.21057  1
 H  H3  1  0.48318  0.56002  0.12954  1
 H  H4  1  0.50739  0.07701  0.24602  1
 H  H5  1  0.51491  0.53147  0.37667  1
 H  H6  1  -0.00505  -0.05356  0.45764  1
 H  H7  1  0.53645  0.05587  0.49264  1
 H  H8  1  -0.05831  0.45035  0.09463  1
 O  O1  1  0.52969  0.70228  0.70036  1
 O  O2  1  0.44651  0.12456  0.98270  1
 O  O3  1  0.03215  0.38186  0.60446  1
 O  O4  1  0.94900  0.80396  0.88692  1
