CIF file written using JARVIS-Tools package.
data_Na2CoO3
_symmetry_space_group_name_H-M  'Cmce'
_cell_length_a       5.79133
_cell_length_b       5.79133
_cell_length_c       11.2438
_cell_angle_alpha    90
_cell_angle_beta     90
_cell_angle_gamma    125

_symmetry_Int_Tables_number  64
_chemical_formula_structural  Na2CoO3
_chemical_formula_sum  Na8Co4O2
_cell_volume  308.9137189599045
_cell_formula_units_Z  4
loop_
  _symmetry_equiv_pos_site_id
 _symmetry_equiv_pos_as_xyz
 1  'x, y, z'
loop_
 _atom_site_type_symbol
 _atom_site_label
 _atom_site_symmetry_multiplicity
 _atom_site_fract_x
 _atom_site_fract_y
 _atom_site_fract_z
 _atom_site_fract_occupancy
 Co  Co1  1  0.74755  0.25245  0.84288  1
 Co  Co2  1  0.75245  0.24755  0.34288  1
 Co  Co3  1  0.24755  0.75245  0.65712  1
 Co  Co4  1  0.25245  0.74755  0.15712  1
 Na  Na1  1  0.36700  0.63300  0.92596  1
 Na  Na2  1  0.04309  0.95691  0.85405  1
 Na  Na3  1  0.95691  0.04309  0.14595  1
 Na  Na4  1  0.45691  0.54309  0.35405  1
 Na  Na5  1  0.54309  0.45691  0.64595  1
 Na  Na6  1  0.86700  0.13300  0.57404  1
 Na  Na7  1  0.63300  0.36700  0.07404  1
 Na  Na8  1  0.13300  0.86700  0.42596  1
 O  O1  1  0.07819  0.92181  0.64293  1
 O  O2  1  0.15754  0.84246  0.03045  1
 O  O3  1  0.04905  0.45095  0.75000  1
 O  O4  1  0.95095  0.54905  0.25000  1
 O  O5  1  0.57819  0.42181  0.85707  1
 O  O6  1  0.92181  0.07819  0.35707  1
 O  O7  1  0.65754  0.34246  0.46955  1
 O  O8  1  0.45095  0.04905  0.25000  1
 O  O9  1  0.34246  0.65754  0.53045  1
 O  O10  1  0.42181  0.57819  0.14293  1
 O  O11  1  0.84246  0.15754  0.96955  1
 O  O12  1  0.54905  0.95095  0.75000  1
