CIF file written using JARVIS-Tools package.
data_BaGePbO4
_symmetry_space_group_name_H-M  'P2_12_12_1'
_cell_length_a       6.26536
_cell_length_b       7.64731
_cell_length_c       10.3135
_cell_angle_alpha    90
_cell_angle_beta     90
_cell_angle_gamma    90

_symmetry_Int_Tables_number  19
_chemical_formula_structural  BaGePbO4
_chemical_formula_sum  Ba4Ge4Pb4O6
_cell_volume  494.1543732020105
_cell_formula_units_Z  4
loop_
  _symmetry_equiv_pos_site_id
 _symmetry_equiv_pos_as_xyz
 1  'x, y, z'
loop_
 _atom_site_type_symbol
 _atom_site_label
 _atom_site_symmetry_multiplicity
 _atom_site_fract_x
 _atom_site_fract_y
 _atom_site_fract_z
 _atom_site_fract_occupancy
 Ba  Ba1  1  0.47546  0.75015  0.78891  1
 Ba  Ba2  1  0.97546  0.74985  0.21109  1
 Ba  Ba3  1  0.02454  0.24985  0.28891  1
 Ba  Ba4  1  0.52454  0.25015  0.71109  1
 Ge  Ge1  1  0.51863  0.96017  0.08934  1
 Ge  Ge2  1  0.01863  0.53983  0.91066  1
 Ge  Ge3  1  0.98137  0.03983  0.58934  1
 Ge  Ge4  1  0.48137  0.46017  0.41066  1
 O  O1  1  0.93746  0.44220  0.06062  1
 O  O2  1  0.24384  0.44737  0.83460  1
 O  O3  1  0.74384  0.05263  0.16540  1
 O  O4  1  0.43746  0.05780  0.93938  1
 O  O5  1  0.06254  0.94220  0.43938  1
 O  O6  1  0.20165  0.01492  0.69880  1
 O  O7  1  0.25616  0.55263  0.33460  1
 O  O8  1  0.56254  0.55780  0.56062  1
 O  O9  1  0.58920  0.73787  0.05247  1
 O  O10  1  0.29835  0.98508  0.19880  1
 O  O11  1  0.91080  0.26213  0.55247  1
 O  O12  1  0.41080  0.23787  0.44753  1
 O  O13  1  0.75616  0.94737  0.66540  1
 O  O14  1  0.79835  0.51492  0.80120  1
 O  O15  1  0.08920  0.76213  0.94753  1
 O  O16  1  0.70165  0.48508  0.30120  1
 Pb  Pb1  1  0.43429  0.94302  0.40898  1
 Pb  Pb2  1  0.93429  0.55698  0.59102  1
 Pb  Pb3  1  0.06571  0.05698  0.90898  1
 Pb  Pb4  1  0.56571  0.44302  0.09102  1
