CIF file written using JARVIS-Tools package.
data_CdH8C6O4
_symmetry_space_group_name_H-M  'P1'
_cell_length_a       3.67406
_cell_length_b       5.18936
_cell_length_c       9.4416
_cell_angle_alpha    73.6956
_cell_angle_beta     89.6158
_cell_angle_gamma    69.7585

_symmetry_Int_Tables_number  1
_chemical_formula_structural  CdH8C6O4
_chemical_formula_sum  CdH8C6O4
_cell_volume  161.28461279846132
_cell_formula_units_Z  1
loop_
  _symmetry_equiv_pos_site_id
 _symmetry_equiv_pos_as_xyz
 1  'x, y, z'
loop_
 _atom_site_type_symbol
 _atom_site_label
 _atom_site_symmetry_multiplicity
 _atom_site_fract_x
 _atom_site_fract_y
 _atom_site_fract_z
 _atom_site_fract_occupancy
 C  C1  1  0.13894  0.03119  0.00649  1
 C  C2  1  0.64583  0.56101  0.61741  1
 C  C3  1  0.52428  0.88656  0.54788  1
 C  C4  1  0.64595  -0.00933  0.39387  1
 C  C5  1  0.76409  0.46829  0.78483  1
 C  C6  1  0.92054  0.14229  0.85243  1
 Cd  Cd1  1  0.88967  0.51138  0.19972  1
 H  H1  1  0.41167  0.48941  0.59281  1
 H  H2  1  0.52123  0.56432  0.84488  1
 H  H3  1  0.12933  0.04064  0.78220  1
 H  H4  1  0.99249  0.54976  0.80431  1
 H  H5  1  0.89390  0.45494  0.56248  1
 H  H6  1  0.20961  0.00045  0.54440  1
 H  H7  1  0.65779  0.97621  0.61715  1
 H  H8  1  0.69114  0.05055  0.85622  1
 O  O1  1  0.52283  0.26933  0.33815  1
 O  O2  1  0.28762  0.75210  0.06044  1
 O  O3  1  0.87325  0.81979  0.33394  1
 O  O4  1  0.19278  0.19931  0.06948  1
