CIF file written using JARVIS-Tools package.
data_V3Co20B6
_symmetry_space_group_name_H-M  'Fm-3m'
_cell_length_a       7.34245
_cell_length_b       7.34246
_cell_length_c       7.34245
_cell_angle_alpha    60
_cell_angle_beta     60
_cell_angle_gamma    60

_symmetry_Int_Tables_number  225
_chemical_formula_structural  V3Co20B6
_chemical_formula_sum  V3Co20B6
_cell_volume  279.9037743146763
_cell_formula_units_Z  1
loop_
  _symmetry_equiv_pos_site_id
 _symmetry_equiv_pos_as_xyz
 1  'x, y, z'
loop_
 _atom_site_type_symbol
 _atom_site_label
 _atom_site_symmetry_multiplicity
 _atom_site_fract_x
 _atom_site_fract_y
 _atom_site_fract_z
 _atom_site_fract_occupancy
 B  B1  1  0.27429  0.72571  0.72571  1
 B  B2  1  0.72571  0.27429  0.27429  1
 B  B3  1  0.27429  0.72571  0.27429  1
 B  B4  1  0.72571  0.72571  0.27429  1
 B  B5  1  0.72571  0.27429  0.72571  1
 B  B6  1  0.27429  0.27429  0.72571  1
 Co  Co1  1  0.66116  0.00000  0.33884  1
 Co  Co2  1  0.62032  0.62032  0.13905  1
 Co  Co3  1  0.62032  0.13905  0.62032  1
 Co  Co4  1  0.13905  0.62032  0.62032  1
 Co  Co5  1  0.62032  0.62032  0.62032  1
 Co  Co6  1  0.37968  0.37968  0.86095  1
 Co  Co7  1  0.37968  0.86095  0.37968  1
 Co  Co8  1  0.86095  0.37968  0.37968  1
 Co  Co9  1  0.37968  0.37968  0.37968  1
 Co  Co10  1  0.66116  0.33884  0.00000  1
 Co  Co11  1  0.00000  0.66116  0.33884  1
 Co  Co12  1  0.00000  0.33884  0.00000  1
 Co  Co13  1  0.00000  0.33884  0.66116  1
 Co  Co14  1  0.33884  0.66116  0.00000  1
 Co  Co15  1  0.33884  0.00000  0.66116  1
 Co  Co16  1  0.33884  0.00000  -0.00000  1
 Co  Co17  1  0.00000  0.00000  0.66116  1
 Co  Co18  1  0.00000  0.66116  -0.00000  1
 Co  Co19  1  0.66116  0.00000  -0.00000  1
 Co  Co20  1  0.00000  0.00000  0.33884  1
 V  V1  1  0.25000  0.25000  0.25000  1
 V  V2  1  0.75000  0.75000  0.75000  1
 V  V3  1  0.00000  0.00000  0.00000  1
