CIF file written using JARVIS-Tools package.
data_CdH10C7O4
_symmetry_space_group_name_H-M  'P1'
_cell_length_a       3.96923
_cell_length_b       4.56202
_cell_length_c       10.6249
_cell_angle_alpha    95.9567
_cell_angle_beta     94.8836
_cell_angle_gamma    108.493

_symmetry_Int_Tables_number  1
_chemical_formula_structural  CdH10C7O4
_chemical_formula_sum  CdH0C7O4
_cell_volume  180.0463644042763
_cell_formula_units_Z  1
loop_
  _symmetry_equiv_pos_site_id
 _symmetry_equiv_pos_as_xyz
 1  'x, y, z'
loop_
 _atom_site_type_symbol
 _atom_site_label
 _atom_site_symmetry_multiplicity
 _atom_site_fract_x
 _atom_site_fract_y
 _atom_site_fract_z
 _atom_site_fract_occupancy
 C  C1  1  0.92387  0.22655  0.99088  1
 C  C2  1  0.00041  0.11302  0.87840  1
 C  C3  1  0.24255  0.31853  0.79771  1
 C  C4  1  0.27028  0.13925  0.67093  1
 C  C5  1  0.46292  0.35234  0.57891  1
 C  C6  1  0.55262  0.17952  0.46026  1
 C  C7  1  0.25491  0.05450  0.35034  1
 Cd  Cd1  1  0.64426  0.59769  0.17307  1
 H  H1  1  0.62613  0.98064  0.48740  1
 H  H2  1  0.30930  0.50225  0.54965  1
 H  H3  1  0.84905  0.87297  0.83840  1
 H  H4  1  0.42043  0.94783  0.99393  1
 H  H5  1  0.41551  0.97645  0.69104  1
 H  H6  1  0.00145  0.99430  0.62559  1
 H  H7  1  0.14375  0.51287  0.77897  1
 H  H8  1  0.51445  0.43060  0.84931  1
 H  H9  1  0.71948  0.51091  0.62996  1
 H  H10  1  0.78153  0.33998  0.42492  1
 O  O1  1  0.24667  0.20187  0.25563  1
 O  O2  1  0.07780  0.51083  0.05423  1
 O  O3  1  0.01360  0.79066  0.35467  1
 O  O4  1  0.64544  0.04278  0.05313  1
