CIF file written using JARVIS-Tools package.
data_Li2Fe5O5F7
_symmetry_space_group_name_H-M  'P1'
_cell_length_a       5.77975
_cell_length_b       5.83085
_cell_length_c       6.19392
_cell_angle_alpha    100.336
_cell_angle_beta     100.83
_cell_angle_gamma    99.4826

_symmetry_Int_Tables_number  1
_chemical_formula_structural  Li2Fe5O5F7
_chemical_formula_sum  Li2Fe5O5F7
_cell_volume  197.3945500350896
_cell_formula_units_Z  1
loop_
  _symmetry_equiv_pos_site_id
 _symmetry_equiv_pos_as_xyz
 1  'x, y, z'
loop_
 _atom_site_type_symbol
 _atom_site_label
 _atom_site_symmetry_multiplicity
 _atom_site_fract_x
 _atom_site_fract_y
 _atom_site_fract_z
 _atom_site_fract_occupancy
 F  F1  1  0.32041  0.94703  0.12514  1
 F  F2  1  0.61390  0.82598  0.43020  1
 F  F3  1  0.05985  0.88527  0.71214  1
 F  F4  1  0.58029  0.40331  0.17727  1
 F  F5  1  0.87322  0.67805  0.04242  1
 F  F6  1  0.18211  0.61621  0.39883  1
 F  F7  1  0.11883  0.31647  0.95909  1
 Fe  Fe1  1  0.65773  0.38491  0.84099  1
 Fe  Fe2  1  0.13770  0.32843  0.57934  1
 Fe  Fe3  1  0.62130  0.14923  0.34736  1
 Fe  Fe4  1  0.98549  0.01026  0.01380  1
 Fe  Fe5  1  0.40060  0.86096  0.67526  1
 Li  Li1  1  0.86725  0.67625  0.40353  1
 Li  Li2  1  0.32333  0.60727  0.13753  1
 O  O1  1  0.39106  0.15745  0.57509  1
 O  O2  1  0.40294  0.57981  0.77619  1
 O  O3  1  0.83887  0.40396  0.60806  1
 O  O4  1  0.66723  0.04356  0.88225  1
 O  O5  1  0.95789  0.12557  0.31551  1
