CIF file written using JARVIS-Tools package.
data_TiMnV4O12
_symmetry_space_group_name_H-M  'C2'
_cell_length_a       6.69791
_cell_length_b       6.69792
_cell_length_c       5.59169
_cell_angle_alpha    74.7422
_cell_angle_beta     74.7423
_cell_angle_gamma    83.4997

_symmetry_Int_Tables_number  5
_chemical_formula_structural  TiMnV4O12
_chemical_formula_sum  TiMnV4O2
_cell_volume  233.2217042994494
_cell_formula_units_Z  1
loop_
  _symmetry_equiv_pos_site_id
 _symmetry_equiv_pos_as_xyz
 1  'x, y, z'
loop_
 _atom_site_type_symbol
 _atom_site_label
 _atom_site_symmetry_multiplicity
 _atom_site_fract_x
 _atom_site_fract_y
 _atom_site_fract_z
 _atom_site_fract_occupancy
 Mn  Mn1  1  0.91565  0.08435  0.00000  1
 O  O1  1  0.36510  0.92233  0.49729  1
 O  O2  1  0.97200  0.81760  0.89153  1
 O  O3  1  0.90576  0.35741  0.02515  1
 O  O4  1  0.07767  0.63490  0.50271  1
 O  O5  1  0.61290  0.66603  0.82352  1
 O  O6  1  0.81760  0.97109  0.37346  1
 O  O7  1  0.66722  0.61642  0.32429  1
 O  O8  1  0.33397  0.38710  0.17648  1
 O  O9  1  0.02891  0.18240  0.62654  1
 O  O10  1  0.38358  0.33278  0.67571  1
 O  O11  1  0.18240  0.02800  0.10847  1
 O  O12  1  0.64259  0.09424  0.97485  1
 Ti  Ti1  1  0.08629  0.91371  0.50000  1
 V  V1  1  0.19888  0.38918  0.49051  1
 V  V2  1  0.39556  0.19690  -0.00993  1
 V  V3  1  0.61082  0.80112  0.50949  1
 V  V4  1  0.80310  0.60444  0.00993  1
