CIF file written using JARVIS-Tools package.
data_CdH12C8O4
_symmetry_space_group_name_H-M  'P1'
_cell_length_a       3.84607
_cell_length_b       4.38732
_cell_length_c       12.7055
_cell_angle_alpha    98.9028
_cell_angle_beta     96.4967
_cell_angle_gamma    96.1414

_symmetry_Int_Tables_number  1
_chemical_formula_structural  CdH12C8O4
_chemical_formula_sum  CdH2C8O4
_cell_volume  208.74947621548486
_cell_formula_units_Z  1
loop_
  _symmetry_equiv_pos_site_id
 _symmetry_equiv_pos_as_xyz
 1  'x, y, z'
loop_
 _atom_site_type_symbol
 _atom_site_label
 _atom_site_symmetry_multiplicity
 _atom_site_fract_x
 _atom_site_fract_y
 _atom_site_fract_z
 _atom_site_fract_occupancy
 C  C1  1  0.57568  0.59438  0.64022  1
 C  C2  1  0.75052  0.35001  0.34355  1
 C  C3  1  0.66993  0.54462  0.44462  1
 C  C4  1  0.63380  0.37390  0.53975  1
 C  C5  1  0.50336  0.42817  0.73434  1
 C  C6  1  0.45231  0.64923  0.83552  1
 C  C7  1  0.35273  0.47393  0.92518  1
 C  C8  1  0.28661  0.68090  0.02563  1
 Cd  Cd1  1  0.04368  0.13501  0.16717  1
 H  H1  1  0.88978  0.73611  0.46528  1
 H  H2  1  0.80782  0.77269  0.66515  1
 H  H3  1  0.69509  0.81151  0.86488  1
 H  H4  1  0.24654  0.79473  0.81519  1
 H  H5  1  0.87060  0.26043  0.55670  1
 H  H6  1  0.35276  0.72290  0.62016  1
 H  H7  1  0.72037  0.29241  0.75330  1
 H  H8  1  0.26597  0.25597  0.70925  1
 H  H9  1  0.56235  0.33822  0.94942  1
 H  H10  1  0.11613  0.30402  0.89734  1
 H  H11  1  0.41012  0.18787  0.51725  1
 H  H12  1  0.43438  0.65509  0.42439  1
 O  O1  1  0.96824  0.15252  0.34860  1
 O  O2  1  0.06184  0.58535  0.08426  1
 O  O3  1  0.61639  0.40552  0.25145  1
 O  O4  1  0.44165  0.96047  0.04907  1
