CIF file written using JARVIS-Tools package.
data_Zr9NiMo4
_symmetry_space_group_name_H-M  'P6_3/mmc'
_cell_length_a       8.77952
_cell_length_b       8.77952
_cell_length_c       8.42982
_cell_angle_alpha    90
_cell_angle_beta     90
_cell_angle_gamma    120

_symmetry_Int_Tables_number  194
_chemical_formula_structural  Zr9NiMo4
_chemical_formula_sum  Zr8Ni2Mo8
_cell_volume  562.7179152545712
_cell_formula_units_Z  2
loop_
  _symmetry_equiv_pos_site_id
 _symmetry_equiv_pos_as_xyz
 1  'x, y, z'
loop_
 _atom_site_type_symbol
 _atom_site_label
 _atom_site_symmetry_multiplicity
 _atom_site_fract_x
 _atom_site_fract_y
 _atom_site_fract_z
 _atom_site_fract_occupancy
 Mo  Mo1  1  0.00000  0.00000  0.00000  1
 Mo  Mo2  1  0.77878  0.88939  0.75000  1
 Mo  Mo3  1  0.11061  0.22122  0.75000  1
 Mo  Mo4  1  0.11061  0.88939  0.75000  1
 Mo  Mo5  1  0.22122  0.11061  0.25000  1
 Mo  Mo6  1  0.88939  0.77878  0.25000  1
 Mo  Mo7  1  0.88939  0.11061  0.25000  1
 Mo  Mo8  1  0.00000  0.00000  0.50000  1
 Ni  Ni1  1  0.33333  0.66667  0.25000  1
 Ni  Ni2  1  0.66667  0.33333  0.75000  1
 Zr  Zr1  1  0.39918  0.19959  0.94404  1
 Zr  Zr2  1  0.19959  0.39918  0.44404  1
 Zr  Zr3  1  0.60082  0.80041  0.44404  1
 Zr  Zr4  1  0.80041  0.19959  0.55596  1
 Zr  Zr5  1  0.19959  0.80041  0.44404  1
 Zr  Zr6  1  0.80041  0.19959  0.94404  1
 Zr  Zr7  1  0.80041  0.60082  0.94404  1
 Zr  Zr8  1  0.54264  0.08527  0.25000  1
 Zr  Zr9  1  0.19959  0.80041  0.05596  1
 Zr  Zr10  1  0.19959  0.39918  0.05596  1
 Zr  Zr11  1  0.60082  0.80041  0.05596  1
 Zr  Zr12  1  0.54264  0.45736  0.25000  1
 Zr  Zr13  1  0.91473  0.45736  0.25000  1
 Zr  Zr14  1  0.45736  0.54264  0.75000  1
 Zr  Zr15  1  0.45736  0.91473  0.75000  1
 Zr  Zr16  1  0.08527  0.54264  0.75000  1
 Zr  Zr17  1  0.39918  0.19959  0.55596  1
 Zr  Zr18  1  0.80041  0.60082  0.55596  1
