CIF file written using JARVIS-Tools package.
data_TbMoBrO4
_symmetry_space_group_name_H-M  'P-1'
_cell_length_a       6.88314
_cell_length_b       7.22379
_cell_length_c       10.9233
_cell_angle_alpha    104.639
_cell_angle_beta     107.364
_cell_angle_gamma    93.404

_symmetry_Int_Tables_number  2
_chemical_formula_structural  TbMoBrO4
_chemical_formula_sum  Tb4Mo4Br4O6
_cell_volume  496.1814302340531
_cell_formula_units_Z  4
loop_
  _symmetry_equiv_pos_site_id
 _symmetry_equiv_pos_as_xyz
 1  'x, y, z'
loop_
 _atom_site_type_symbol
 _atom_site_label
 _atom_site_symmetry_multiplicity
 _atom_site_fract_x
 _atom_site_fract_y
 _atom_site_fract_z
 _atom_site_fract_occupancy
 Br  Br1  1  0.81447  0.29071  0.02266  1
 Br  Br2  1  0.25687  0.98514  0.51849  1
 Br  Br3  1  0.18553  0.70929  0.97734  1
 Br  Br4  1  0.74313  0.01486  0.48151  1
 Mo  Mo1  1  0.73235  0.81162  0.13274  1
 Mo  Mo2  1  0.26765  0.18838  0.86726  1
 Mo  Mo3  1  0.77688  0.59895  0.62789  1
 Mo  Mo4  1  0.22312  0.40105  0.37211  1
 O  O1  1  0.37783  0.35199  0.79747  1
 O  O2  1  0.62217  0.64801  0.20253  1
 O  O3  1  -0.00010  0.13080  0.79350  1
 O  O4  1  0.67107  0.51345  0.45172  1
 O  O5  1  0.00010  0.86920  0.20650  1
 O  O6  1  0.65591  0.79628  0.70153  1
 O  O7  1  0.67040  0.72568  0.95842  1
 O  O8  1  0.32960  0.27432  0.04158  1
 O  O9  1  0.60095  0.01446  0.17611  1
 O  O10  1  0.34409  0.20372  0.29847  1
 O  O11  1  0.95667  0.34039  0.33052  1
 O  O12  1  0.72424  0.41777  0.70096  1
 O  O13  1  0.27576  0.58223  0.29904  1
 O  O14  1  0.39905  0.98554  0.82389  1
 O  O15  1  0.32893  0.48655  0.54828  1
 O  O16  1  0.04333  0.65961  0.66948  1
 Tb  Tb1  1  0.61070  0.34432  0.23301  1
 Tb  Tb2  1  0.38930  0.65568  0.76699  1
 Tb  Tb3  1  0.35388  0.87519  0.26730  1
 Tb  Tb4  1  0.64612  0.12481  0.73270  1
