CIF file written using JARVIS-Tools package.
data_CdH14C9O4
_symmetry_space_group_name_H-M  'P1'
_cell_length_a       4.24349
_cell_length_b       4.21898
_cell_length_c       12.9305
_cell_angle_alpha    86.1302
_cell_angle_beta     84.19
_cell_angle_gamma    75.8875

_symmetry_Int_Tables_number  1
_chemical_formula_structural  CdH14C9O4
_chemical_formula_sum  CdH4C9O4
_cell_volume  223.13792189605462
_cell_formula_units_Z  1
loop_
  _symmetry_equiv_pos_site_id
 _symmetry_equiv_pos_as_xyz
 1  'x, y, z'
loop_
 _atom_site_type_symbol
 _atom_site_label
 _atom_site_symmetry_multiplicity
 _atom_site_fract_x
 _atom_site_fract_y
 _atom_site_fract_z
 _atom_site_fract_occupancy
 C  C1  1  0.66944  0.95352  0.31033  1
 C  C2  1  0.63463  0.47778  0.68346  1
 C  C3  1  0.45729  0.57346  0.58590  1
 C  C4  1  0.47190  0.82773  0.40275  1
 C  C5  1  0.67039  0.69047  0.49504  1
 C  C6  1  0.46101  0.11829  0.22283  1
 C  C7  1  0.65589  0.25230  0.13118  1
 C  C8  1  0.44676  0.48169  0.05391  1
 C  C9  1  0.35505  0.33372  0.96198  1
 Cd  Cd1  1  0.06311  0.99166  0.82957  1
 H  H1  1  0.87622  0.48652  0.47108  1
 H  H2  1  0.23948  0.76930  0.60403  1
 H  H3  1  0.37684  0.36050  0.56381  1
 H  H4  1  0.26963  0.32270  0.25531  1
 H  H5  1  0.22055  0.62455  0.09353  1
 H  H6  1  0.58115  0.65920  0.01859  1
 H  H7  1  0.77643  0.88098  0.52168  1
 H  H8  1  0.35993  0.63962  0.37725  1
 H  H9  1  0.86551  0.74973  0.27984  1
 H  H10  1  0.79304  0.13000  0.33747  1
 H  H11  1  0.82304  0.05058  0.08916  1
 H  H12  1  0.81061  0.39016  0.16275  1
 H  H13  1  0.26679  0.02963  0.42932  1
 H  H14  1  0.33150  0.94758  0.19582  1
 O  O1  1  0.87295  0.22203  0.68074  1
 O  O2  1  0.53334  0.07218  0.92409  1
 O  O3  1  0.54956  0.65006  0.76312  1
 O  O4  1  0.08727  0.47497  0.92190  1
