CIF file written using JARVIS-Tools package.
data_MgNi2O4
_symmetry_space_group_name_H-M  'I4_1/amd'
_cell_length_a       5.82406
_cell_length_b       5.82394
_cell_length_c       5.83969
_cell_angle_alpha    119.908
_cell_angle_beta     119.909
_cell_angle_gamma    90.0064

_symmetry_Int_Tables_number  141
_chemical_formula_structural  MgNi2O4
_chemical_formula_sum  Mg2Ni4O8
_cell_volume  140.43996882501716
_cell_formula_units_Z  2
loop_
  _symmetry_equiv_pos_site_id
 _symmetry_equiv_pos_as_xyz
 1  'x, y, z'
loop_
 _atom_site_type_symbol
 _atom_site_label
 _atom_site_symmetry_multiplicity
 _atom_site_fract_x
 _atom_site_fract_y
 _atom_site_fract_z
 _atom_site_fract_occupancy
 Mg  Mg1  1  0.37500  0.62500  0.75000  1
 Mg  Mg2  1  0.62500  0.37500  0.25000  1
 Ni  Ni1  1  0.00000  0.00000  0.50000  1
 Ni  Ni2  1  0.00000  0.50000  0.00000  1
 Ni  Ni3  1  0.50000  -0.00000  0.50000  1
 Ni  Ni4  1  -0.00000  -0.00000  0.00000  1
 O  O1  1  0.76346  0.78930  0.52687  1
 O  O2  1  0.76242  0.23659  0.97315  1
 O  O3  1  0.21070  0.23654  0.97313  1
 O  O4  1  0.23654  0.21070  0.47313  1
 O  O5  1  0.23658  0.76243  0.47315  1
 O  O6  1  0.23758  0.76342  0.02685  1
 O  O7  1  0.76342  0.23757  0.52685  1
 O  O8  1  0.78930  0.76346  0.02687  1
