CIF file written using JARVIS-Tools package.
data_Mn6O11F
_symmetry_space_group_name_H-M  'Amm2'
_cell_length_a       4.45808
_cell_length_b       4.45808
_cell_length_c       8.64452
_cell_angle_alpha    90
_cell_angle_beta     90
_cell_angle_gamma    90.7843

_symmetry_Int_Tables_number  38
_chemical_formula_structural  Mn6O11F
_chemical_formula_sum  Mn6OF
_cell_volume  171.7890349294345
_cell_formula_units_Z  1
loop_
  _symmetry_equiv_pos_site_id
 _symmetry_equiv_pos_as_xyz
 1  'x, y, z'
loop_
 _atom_site_type_symbol
 _atom_site_label
 _atom_site_symmetry_multiplicity
 _atom_site_fract_x
 _atom_site_fract_y
 _atom_site_fract_z
 _atom_site_fract_occupancy
 F  F1  1  0.20032  0.79968  0.00000  1
 Mn  Mn1  1  0.49623  0.50377  0.33482  1
 Mn  Mn2  1  0.49623  0.50377  0.66518  1
 Mn  Mn3  1  0.99132  0.00868  0.82296  1
 Mn  Mn4  1  0.99132  0.00868  0.17704  1
 Mn  Mn5  1  0.00144  0.99856  0.50000  1
 Mn  Mn6  1  0.52024  0.47976  0.00000  1
 O  O1  1  0.19422  0.80578  0.66441  1
 O  O2  1  0.69650  0.69550  0.16646  1
 O  O3  1  0.30248  0.30490  0.50000  1
 O  O4  1  0.69650  0.69550  0.83354  1
 O  O5  1  0.30450  0.30350  0.16646  1
 O  O6  1  0.81032  0.18968  0.00000  1
 O  O7  1  0.30450  0.30350  0.83354  1
 O  O8  1  0.19422  0.80578  0.33559  1
 O  O9  1  0.80228  0.19772  0.33585  1
 O  O10  1  0.80228  0.19772  0.66415  1
 O  O11  1  0.69510  0.69752  0.50000  1
