CIF file written using JARVIS-Tools package.
data_CdH14C9O4
_symmetry_space_group_name_H-M  'P1'
_cell_length_a       4.0691
_cell_length_b       4.42201
_cell_length_c       13.8871
_cell_angle_alpha    83.9005
_cell_angle_beta     77.5928
_cell_angle_gamma    78.2326

_symmetry_Int_Tables_number  1
_chemical_formula_structural  CdH14C9O4
_chemical_formula_sum  CdH4C9O4
_cell_volume  238.40369370140849
_cell_formula_units_Z  1
loop_
  _symmetry_equiv_pos_site_id
 _symmetry_equiv_pos_as_xyz
 1  'x, y, z'
loop_
 _atom_site_type_symbol
 _atom_site_label
 _atom_site_symmetry_multiplicity
 _atom_site_fract_x
 _atom_site_fract_y
 _atom_site_fract_z
 _atom_site_fract_occupancy
 C  C1  1  0.29321  0.91265  0.68188  1
 C  C2  1  0.79937  0.13447  0.27902  1
 C  C3  1  0.72878  0.73336  0.41125  1
 C  C4  1  0.46431  0.72482  0.59206  1
 C  C5  1  0.62265  0.91923  0.50262  1
 C  C6  1  0.13677  0.71581  0.77055  1
 C  C7  1  0.94432  0.90214  0.85917  1
 C  C8  1  0.79436  0.69219  0.94495  1
 C  C9  1  0.57651  0.85361  0.03445  1
 Cd  Cd1  1  0.18765  0.34057  0.17114  1
 H  H1  1  0.43636  0.12869  0.48855  1
 H  H2  1  0.89229  0.50952  0.42502  1
 H  H3  1  0.50528  0.69671  0.38513  1
 H  H4  1  0.34066  0.53420  0.79334  1
 H  H5  1  0.62946  0.55876  0.92061  1
 H  H6  1  -0.00324  0.51481  0.96941  1
 H  H7  1  0.84646  0.99607  0.51791  1
 H  H8  1  0.27258  0.61364  0.57114  1
 H  H9  1  0.09115  0.10016  0.66103  1
 H  H10  1  0.48056  0.02846  0.70299  1
 H  H11  1  0.73691  0.07972  0.83700  1
 H  H12  1  0.11677  0.02760  0.88340  1
 H  H13  1  0.66312  0.53327  0.61243  1
 H  H14  1  0.96006  0.59140  0.74756  1
 O  O1  1  0.94846  0.88143  0.32870  1
 O  O2  1  0.44193  0.13783  0.02315  1
 O  O3  1  0.48788  0.23323  0.30314  1
 O  O4  1  0.53417  0.69992  0.11908  1
