CIF file written using JARVIS-Tools package.
data_Zr6Al16Pd7
_symmetry_space_group_name_H-M  'Fm-3m'
_cell_length_a       8.7861
_cell_length_b       8.78611
_cell_length_c       8.78611
_cell_angle_alpha    60
_cell_angle_beta     60
_cell_angle_gamma    60

_symmetry_Int_Tables_number  225
_chemical_formula_structural  Zr6Al16Pd7
_chemical_formula_sum  Zr6Al6Pd7
_cell_volume  479.5950050786218
_cell_formula_units_Z  1
loop_
  _symmetry_equiv_pos_site_id
 _symmetry_equiv_pos_as_xyz
 1  'x, y, z'
loop_
 _atom_site_type_symbol
 _atom_site_label
 _atom_site_symmetry_multiplicity
 _atom_site_fract_x
 _atom_site_fract_y
 _atom_site_fract_z
 _atom_site_fract_occupancy
 Al  Al1  1  0.63910  0.12030  0.12030  1
 Al  Al2  1  0.36090  0.87970  0.87970  1
 Al  Al3  1  0.87970  0.87970  0.87970  1
 Al  Al4  1  0.12030  0.12030  0.63910  1
 Al  Al5  1  0.12030  0.63910  0.12030  1
 Al  Al6  1  0.12030  0.12030  0.12030  1
 Al  Al7  1  0.66545  0.66545  0.00364  1
 Al  Al8  1  0.66545  0.00364  0.66545  1
 Al  Al9  1  0.00364  0.66545  0.66545  1
 Al  Al10  1  0.87970  0.36090  0.87970  1
 Al  Al11  1  0.66545  0.66545  0.66545  1
 Al  Al12  1  0.33455  0.99636  0.33455  1
 Al  Al13  1  0.99636  0.33455  0.33455  1
 Al  Al14  1  0.33455  0.33455  0.33455  1
 Al  Al15  1  0.33455  0.33455  0.99636  1
 Al  Al16  1  0.87970  0.87970  0.36090  1
 Pd  Pd1  1  -0.00000  0.50000  -0.00000  1
 Pd  Pd2  1  0.00000  0.00000  0.00000  1
 Pd  Pd3  1  0.00000  0.00000  0.50000  1
 Pd  Pd4  1  0.50000  0.00000  0.50000  1
 Pd  Pd5  1  -0.00000  0.50000  0.50000  1
 Pd  Pd6  1  0.50000  0.00000  0.00000  1
 Pd  Pd7  1  0.50000  0.50000  0.00000  1
 Zr  Zr1  1  0.31405  0.68595  0.68595  1
 Zr  Zr2  1  0.68595  0.31405  0.68595  1
 Zr  Zr3  1  0.31405  0.31405  0.68595  1
 Zr  Zr4  1  0.68595  0.31405  0.31405  1
 Zr  Zr5  1  0.31405  0.68595  0.31405  1
 Zr  Zr6  1  0.68595  0.68595  0.31405  1
