CIF file written using JARVIS-Tools package.
data_V2O3F
_symmetry_space_group_name_H-M  'Cmcm'
_cell_length_a       4.66518
_cell_length_b       4.66518
_cell_length_c       5.79801
_cell_angle_alpha    90.0006
_cell_angle_beta     89.9994
_cell_angle_gamma    93.5223

_symmetry_Int_Tables_number  63
_chemical_formula_structural  V2O3F
_chemical_formula_sum  V4O6F2
_cell_volume  125.94895779464603
_cell_formula_units_Z  2
loop_
  _symmetry_equiv_pos_site_id
 _symmetry_equiv_pos_as_xyz
 1  'x, y, z'
loop_
 _atom_site_type_symbol
 _atom_site_label
 _atom_site_symmetry_multiplicity
 _atom_site_fract_x
 _atom_site_fract_y
 _atom_site_fract_z
 _atom_site_fract_occupancy
 F  F1  1  0.20529  0.79471  0.25000  1
 F  F2  1  0.79471  0.20529  0.75000  1
 O  O1  1  0.19475  0.80526  0.75000  1
 O  O2  1  0.80526  0.19474  0.25000  1
 O  O3  1  0.30176  0.30176  0.00000  1
 O  O4  1  0.30176  0.30176  0.50000  1
 O  O5  1  0.69824  0.69824  0.00000  1
 O  O6  1  0.69824  0.69824  0.50000  1
 V  V1  1  -0.00000  -0.00000  0.50000  1
 V  V2  1  -0.00000  -0.00000  0.00000  1
 V  V3  1  0.53807  0.46193  0.25000  1
 V  V4  1  0.46193  0.53807  0.75000  1
