CIF file written using JARVIS-Tools package.
data_Na3CoO3
_symmetry_space_group_name_H-M  'P2_13'
_cell_length_a       7.38711
_cell_length_b       7.38722
_cell_length_c       7.38703
_cell_angle_alpha    90.0007
_cell_angle_beta     90
_cell_angle_gamma    90.0007

_symmetry_Int_Tables_number  198
_chemical_formula_structural  Na3CoO3
_chemical_formula_sum  Na2Co4O2
_cell_volume  403.11169193881375
_cell_formula_units_Z  4
loop_
  _symmetry_equiv_pos_site_id
 _symmetry_equiv_pos_as_xyz
 1  'x, y, z'
loop_
 _atom_site_type_symbol
 _atom_site_label
 _atom_site_symmetry_multiplicity
 _atom_site_fract_x
 _atom_site_fract_y
 _atom_site_fract_z
 _atom_site_fract_occupancy
 Co  Co1  1  0.48215  0.48216  0.48215  1
 Co  Co2  1  0.98216  0.01784  0.51784  1
 Co  Co3  1  0.51785  0.98215  0.01785  1
 Co  Co4  1  0.01785  0.51785  0.98215  1
 Na  Na1  1  0.95681  0.54317  0.45681  1
 Na  Na2  1  0.79590  0.79590  0.79591  1
 Na  Na3  1  0.77240  0.22760  0.72760  1
 Na  Na4  1  0.72760  0.77240  0.22761  1
 Na  Na5  1  0.04318  0.04318  0.04318  1
 Na  Na6  1  0.54318  0.45682  0.95682  1
 Na  Na7  1  0.45681  0.95683  0.54319  1
 Na  Na8  1  0.29590  0.70410  0.20410  1
 Na  Na9  1  0.27240  0.27240  0.27240  1
 Na  Na10  1  0.22760  0.72760  0.77239  1
 Na  Na11  1  0.20409  0.29591  0.70409  1
 Na  Na12  1  0.70409  0.20409  0.29590  1
 O  O1  1  0.77295  0.89989  0.49871  1
 O  O2  1  0.72705  0.10011  0.99870  1
 O  O3  1  0.60013  0.50130  0.27295  1
 O  O4  1  0.50130  0.27295  0.60012  1
 O  O5  1  0.49870  0.77294  0.89989  1
 O  O6  1  0.22705  0.39988  0.00130  1
 O  O7  1  0.27294  0.60011  0.50129  1
 O  O8  1  0.10014  0.99870  0.72704  1
 O  O9  1  0.00130  0.22704  0.39988  1
 O  O10  1  0.89988  0.49870  0.77295  1
 O  O11  1  0.39988  0.00130  0.22706  1
 O  O12  1  -0.00130  0.72706  0.10011  1
