CIF file written using JARVIS-Tools package.
data_Li2Mn2CrO6
_symmetry_space_group_name_H-M  'Cmce'
_cell_length_a       4.92484
_cell_length_b       4.92485
_cell_length_c       9.99725
_cell_angle_alpha    90
_cell_angle_beta     90
_cell_angle_gamma    119.757

_symmetry_Int_Tables_number  64
_chemical_formula_structural  Li2Mn2CrO6
_chemical_formula_sum  Li4Mn4Cr2O2
_cell_volume  210.50082513026575
_cell_formula_units_Z  2
loop_
  _symmetry_equiv_pos_site_id
 _symmetry_equiv_pos_as_xyz
 1  'x, y, z'
loop_
 _atom_site_type_symbol
 _atom_site_label
 _atom_site_symmetry_multiplicity
 _atom_site_fract_x
 _atom_site_fract_y
 _atom_site_fract_z
 _atom_site_fract_occupancy
 Cr  Cr1  1  0.00000  0.00000  0.00000  1
 Cr  Cr2  1  0.50000  0.50000  0.50000  1
 Li  Li1  1  0.66068  0.16068  0.75000  1
 Li  Li2  1  0.83932  0.33932  0.25000  1
 Li  Li3  1  0.16068  0.66068  0.75000  1
 Li  Li4  1  0.33932  0.83932  0.25000  1
 Mn  Mn1  1  0.83730  0.16270  0.50000  1
 Mn  Mn2  1  0.66270  0.33730  0.00000  1
 Mn  Mn3  1  0.33730  0.66270  0.00000  1
 Mn  Mn4  1  0.16270  0.83730  0.50000  1
 O  O1  1  0.49570  0.83976  0.60687  1
 O  O2  1  0.33976  0.99570  0.89313  1
 O  O3  1  0.50430  0.16024  0.39313  1
 O  O4  1  0.83976  0.49570  0.60687  1
 O  O5  1  0.66024  0.00430  0.10687  1
 O  O6  1  0.16024  0.50430  0.39313  1
 O  O7  1  0.66217  0.66217  0.89636  1
 O  O8  1  0.99570  0.33976  0.89313  1
 O  O9  1  0.83783  0.83783  0.39636  1
 O  O10  1  0.16217  0.16217  0.60364  1
 O  O11  1  0.33783  0.33783  0.10364  1
 O  O12  1  0.00430  0.66024  0.10687  1
