CIF file written using JARVIS-Tools package.
data_K3LuP2O8
_symmetry_space_group_name_H-M  'P2_1/m'
_cell_length_a       5.59893
_cell_length_b       7.34164
_cell_length_c       9.27079
_cell_angle_alpha    89.1757
_cell_angle_beta     90
_cell_angle_gamma    90

_symmetry_Int_Tables_number  11
_chemical_formula_structural  K3LuP2O8
_chemical_formula_sum  K6Lu2P4O6
_cell_volume  381.03938818429407
_cell_formula_units_Z  2
loop_
  _symmetry_equiv_pos_site_id
 _symmetry_equiv_pos_as_xyz
 1  'x, y, z'
loop_
 _atom_site_type_symbol
 _atom_site_label
 _atom_site_symmetry_multiplicity
 _atom_site_fract_x
 _atom_site_fract_y
 _atom_site_fract_z
 _atom_site_fract_occupancy
 K  K1  1  0.25000  0.20428  0.92106  1
 K  K2  1  0.75000  0.79572  0.07894  1
 K  K3  1  0.25000  0.63412  0.58510  1
 K  K4  1  0.75000  0.36588  0.41490  1
 K  K5  1  0.25000  0.49770  0.19245  1
 K  K6  1  0.75000  0.50230  0.80755  1
 Lu  Lu1  1  0.25000  0.99090  0.28618  1
 Lu  Lu2  1  0.75000  0.00910  0.71382  1
 O  O1  1  0.75000  0.01921  0.46839  1
 O  O2  1  0.52395  0.76882  0.33653  1
 O  O3  1  0.02395  0.23118  0.66347  1
 O  O4  1  0.25000  0.98079  0.53161  1
 O  O5  1  0.25000  0.29141  0.42711  1
 O  O6  1  0.75000  0.43471  0.10432  1
 O  O7  1  0.47605  0.23118  0.66347  1
 O  O8  1  0.75000  0.70859  0.57289  1
 O  O9  1  0.97624  0.14790  0.17041  1
 O  O10  1  0.75000  0.16560  0.93300  1
 O  O11  1  0.02376  0.85210  0.82959  1
 O  O12  1  0.52376  0.14790  0.17041  1
 O  O13  1  0.97605  0.76882  0.33653  1
 O  O14  1  0.25000  0.83440  0.06700  1
 O  O15  1  0.47624  0.85210  0.82959  1
 O  O16  1  0.25000  0.56529  0.89568  1
 P  P1  1  0.25000  0.18362  0.57279  1
 P  P2  1  0.75000  0.81638  0.42721  1
 P  P3  1  0.75000  0.22615  0.09332  1
 P  P4  1  0.25000  0.77385  0.90668  1
