CIF file written using JARVIS-Tools package.
data_K2MoS3O
_symmetry_space_group_name_H-M  'Pnma'
_cell_length_a       7.01877
_cell_length_b       9.05379
_cell_length_c       11.1907
_cell_angle_alpha    90
_cell_angle_beta     90
_cell_angle_gamma    90

_symmetry_Int_Tables_number  62
_chemical_formula_structural  K2MoS3O
_chemical_formula_sum  K8Mo4S2O4
_cell_volume  711.131944685868
_cell_formula_units_Z  4
loop_
  _symmetry_equiv_pos_site_id
 _symmetry_equiv_pos_as_xyz
 1  'x, y, z'
loop_
 _atom_site_type_symbol
 _atom_site_label
 _atom_site_symmetry_multiplicity
 _atom_site_fract_x
 _atom_site_fract_y
 _atom_site_fract_z
 _atom_site_fract_occupancy
 K  K1  1  0.25000  0.45047  0.19074  1
 K  K2  1  0.25000  0.95047  0.30926  1
 K  K3  1  0.75000  0.54953  0.80926  1
 K  K4  1  0.75000  0.04953  0.69074  1
 K  K5  1  0.25000  0.15777  0.87358  1
 K  K6  1  0.25000  0.65777  0.62642  1
 K  K7  1  0.75000  0.84223  0.12642  1
 K  K8  1  0.75000  0.34223  0.37358  1
 Mo  Mo1  1  0.75000  0.26035  0.04456  1
 Mo  Mo2  1  0.75000  0.76035  0.45544  1
 Mo  Mo3  1  0.25000  0.23965  0.54456  1
 Mo  Mo4  1  0.25000  0.73965  0.95544  1
 O  O1  1  0.25000  0.25575  0.38871  1
 O  O2  1  0.75000  0.74425  0.61129  1
 O  O3  1  0.75000  0.24425  0.88871  1
 O  O4  1  0.25000  0.75575  0.11129  1
 S  S1  1  0.00289  0.15127  0.12228  1
 S  S2  1  0.49711  0.65127  0.37772  1
 S  S3  1  0.00289  0.65127  0.37772  1
 S  S4  1  0.25000  0.50480  0.90071  1
 S  S5  1  0.50289  0.34873  0.62228  1
 S  S6  1  0.75000  0.49520  0.09929  1
 S  S7  1  0.75000  0.99520  0.40071  1
 S  S8  1  0.25000  0.00480  0.59929  1
 S  S9  1  -0.00289  0.84873  0.87772  1
 S  S10  1  0.49711  0.15127  0.12228  1
 S  S11  1  -0.00289  0.34873  0.62228  1
 S  S12  1  0.50289  0.84873  0.87772  1
