CIF file written using JARVIS-Tools package.
data_Mg2SiS4
_symmetry_space_group_name_H-M  'Pnma'
_cell_length_a       5.94326
_cell_length_b       7.42771
_cell_length_c       12.7102
_cell_angle_alpha    90
_cell_angle_beta     90
_cell_angle_gamma    90

_symmetry_Int_Tables_number  62
_chemical_formula_structural  Mg2SiS4
_chemical_formula_sum  Mg8Si4S6
_cell_volume  561.0871446985514
_cell_formula_units_Z  4
loop_
  _symmetry_equiv_pos_site_id
 _symmetry_equiv_pos_as_xyz
 1  'x, y, z'
loop_
 _atom_site_type_symbol
 _atom_site_label
 _atom_site_symmetry_multiplicity
 _atom_site_fract_x
 _atom_site_fract_y
 _atom_site_fract_z
 _atom_site_fract_occupancy
 Mg  Mg1  1  0.00000  0.50000  0.00000  1
 Mg  Mg2  1  0.50000  0.00000  0.50000  1
 Mg  Mg3  1  0.00000  0.00000  0.00000  1
 Mg  Mg4  1  0.50000  0.50000  0.50000  1
 Mg  Mg5  1  0.49189  0.75000  0.23050  1
 Mg  Mg6  1  0.00811  0.75000  0.73050  1
 Mg  Mg7  1  0.50811  0.25000  0.76950  1
 Mg  Mg8  1  0.99189  0.25000  0.26950  1
 S  S1  1  0.23649  0.75000  0.90759  1
 S  S2  1  0.73985  0.75000  0.06594  1
 S  S3  1  0.76015  0.75000  0.56594  1
 S  S4  1  0.26351  0.75000  0.40759  1
 S  S5  1  0.73649  0.25000  0.59241  1
 S  S6  1  0.75193  0.97714  0.33325  1
 S  S7  1  0.26015  0.25000  0.93406  1
 S  S8  1  0.76351  0.25000  0.09241  1
 S  S9  1  0.75193  0.52286  0.33325  1
 S  S10  1  0.24807  0.47714  0.66675  1
 S  S11  1  0.24807  0.02286  0.66675  1
 S  S12  1  0.25193  0.47714  0.16675  1
 S  S13  1  0.23985  0.25000  0.43406  1
 S  S14  1  0.25193  0.02286  0.16675  1
 S  S15  1  0.74807  0.97714  0.83325  1
 S  S16  1  0.74807  0.52286  0.83325  1
 Si  Si1  1  0.90725  0.75000  0.41038  1
 Si  Si2  1  0.59275  0.75000  0.91038  1
 Si  Si3  1  0.09275  0.25000  0.58962  1
 Si  Si4  1  0.40725  0.25000  0.08962  1
