CIF file written using JARVIS-Tools package.
data_CdH18C11O4
_symmetry_space_group_name_H-M  'P1'
_cell_length_a       3.87822
_cell_length_b       4.49865
_cell_length_c       16.9786
_cell_angle_alpha    83.4777
_cell_angle_beta     83.6643
_cell_angle_gamma    68.4683

_symmetry_Int_Tables_number  1
_chemical_formula_structural  CdH18C11O4
_chemical_formula_sum  CdH8CO4
_cell_volume  273.00904073491586
_cell_formula_units_Z  1
loop_
  _symmetry_equiv_pos_site_id
 _symmetry_equiv_pos_as_xyz
 1  'x, y, z'
loop_
 _atom_site_type_symbol
 _atom_site_label
 _atom_site_symmetry_multiplicity
 _atom_site_fract_x
 _atom_site_fract_y
 _atom_site_fract_z
 _atom_site_fract_occupancy
 C  C1  1  0.52612  0.64082  0.34775  1
 C  C2  1  0.28806  0.39686  0.72715  1
 C  C3  1  0.35691  0.57860  0.65010  1
 C  C4  1  0.45943  0.60221  0.49983  1
 C  C5  1  0.50723  0.43049  0.42435  1
 C  C6  1  0.42398  0.39505  0.57606  1
 C  C7  1  0.55937  0.47109  0.27258  1
 C  C8  1  0.56376  0.68251  0.19557  1
 C  C9  1  0.58112  0.51215  0.12109  1
 C  C10  1  0.56037  0.72560  0.04542  1
 C  C11  1  0.69365  0.62457  0.97223  1
 Cd  Cd1  1  0.11739  -0.01945  0.84709  1
 H  H1  1  0.19478  0.30901  0.57325  1
 H  H2  1  0.11028  0.79974  0.64463  1
 H  H3  1  0.27471  0.86047  0.34730  1
 H  H4  1  0.58580  0.65968  0.65641  1
 H  H5  1  0.76076  0.21280  0.42571  1
 H  H6  1  0.31147  0.90123  0.19667  1
 H  H7  1  0.79978  0.76557  0.19186  1
 H  H8  1  0.39664  0.98018  0.04792  1
 H  H9  1  0.82357  0.16067  0.00581  1
 H  H10  1  0.83856  0.29760  0.11948  1
 H  H11  1  0.20920  0.82268  0.49733  1
 H  H12  1  0.27514  0.34479  0.42380  1
 H  H13  1  0.76164  0.72299  0.34715  1
 H  H14  1  0.32667  0.38442  0.27450  1
 H  H15  1  0.81367  0.25394  0.27217  1
 H  H16  1  0.35077  0.41938  0.12843  1
 H  H17  1  0.67723  0.17867  0.58060  1
 H  H18  1  0.69400  0.68365  0.50160  1
 O  O1  1  0.35285  0.46059  0.79436  1
 O  O2  1  0.15818  0.17661  0.72252  1
 O  O3  1  0.88688  0.29751  0.96171  1
 O  O4  1  0.66864  0.80402  0.90431  1
