CIF file written using JARVIS-Tools package.
data_YPbO4
_symmetry_space_group_name_H-M  'I-4m2'
_cell_length_a       6.494
_cell_length_b       6.494
_cell_length_c       6.494
_cell_angle_alpha    141.796
_cell_angle_beta     141.796
_cell_angle_gamma    55.1358

_symmetry_Int_Tables_number  119
_chemical_formula_structural  YPbO4
_chemical_formula_sum  YPbO4
_cell_volume  103.99486960110005
_cell_formula_units_Z  1
loop_
  _symmetry_equiv_pos_site_id
 _symmetry_equiv_pos_as_xyz
 1  'x, y, z'
loop_
 _atom_site_type_symbol
 _atom_site_label
 _atom_site_symmetry_multiplicity
 _atom_site_fract_x
 _atom_site_fract_y
 _atom_site_fract_z
 _atom_site_fract_occupancy
 O  O1  1  0.94106  0.44106  0.50000  1
 O  O2  1  0.20370  0.20370  0.00000  1
 O  O3  1  0.79630  0.79630  0.00000  1
 O  O4  1  0.55894  0.05894  0.50000  1
 Pb  Pb1  1  0.75000  0.25000  0.50000  1
 Y  Y1  1  0.00000  0.00000  0.00000  1
