CIF file written using JARVIS-Tools package.
data_Sm3Rh
_symmetry_space_group_name_H-M  'Pnma'
_cell_length_a       6.38324
_cell_length_b       7.21867
_cell_length_c       9.7167
_cell_angle_alpha    90
_cell_angle_beta     90
_cell_angle_gamma    90

_symmetry_Int_Tables_number  62
_chemical_formula_structural  Sm3Rh
_chemical_formula_sum  Sm2Rh4
_cell_volume  447.73132123647594
_cell_formula_units_Z  4
loop_
  _symmetry_equiv_pos_site_id
 _symmetry_equiv_pos_as_xyz
 1  'x, y, z'
loop_
 _atom_site_type_symbol
 _atom_site_label
 _atom_site_symmetry_multiplicity
 _atom_site_fract_x
 _atom_site_fract_y
 _atom_site_fract_z
 _atom_site_fract_occupancy
 Rh  Rh1  1  0.06551  0.88086  0.25000  1
 Rh  Rh2  1  0.43449  0.38086  0.25000  1
 Rh  Rh3  1  0.93449  0.11914  0.75000  1
 Rh  Rh4  1  0.56551  0.61914  0.75000  1
 Sm  Sm1  1  0.33156  0.67808  0.06384  1
 Sm  Sm2  1  0.16844  0.17808  0.43616  1
 Sm  Sm3  1  0.66844  0.32192  0.56384  1
 Sm  Sm4  1  0.83156  0.82192  0.93616  1
 Sm  Sm5  1  0.66844  0.32192  0.93616  1
 Sm  Sm6  1  0.83156  0.82192  0.56384  1
 Sm  Sm7  1  0.33156  0.67808  0.43616  1
 Sm  Sm8  1  0.16844  0.17808  0.06384  1
 Sm  Sm9  1  0.85722  0.53379  0.25000  1
 Sm  Sm10  1  0.64278  0.03379  0.25000  1
 Sm  Sm11  1  0.14278  0.46621  0.75000  1
 Sm  Sm12  1  0.35722  0.96621  0.75000  1
