CIF file written using JARVIS-Tools package.
data_LiV2F7
_symmetry_space_group_name_H-M  'C2/c'
_cell_length_a       8.89361
_cell_length_b       8.89361
_cell_length_c       5.47201
_cell_angle_alpha    89.0124
_cell_angle_beta     89.0124
_cell_angle_gamma    31.3031

_symmetry_Int_Tables_number  15
_chemical_formula_structural  LiV2F7
_chemical_formula_sum  Li2V4F4
_cell_volume  224.8402943109818
_cell_formula_units_Z  2
loop_
  _symmetry_equiv_pos_site_id
 _symmetry_equiv_pos_as_xyz
 1  'x, y, z'
loop_
 _atom_site_type_symbol
 _atom_site_label
 _atom_site_symmetry_multiplicity
 _atom_site_fract_x
 _atom_site_fract_y
 _atom_site_fract_z
 _atom_site_fract_occupancy
 F  F1  1  0.06983  0.20951  0.50643  1
 F  F2  1  0.35533  0.49893  0.10336  1
 F  F3  1  0.49893  0.35533  0.60336  1
 F  F4  1  0.79049  0.93017  0.99357  1
 F  F5  1  0.10710  0.89290  0.75000  1
 F  F6  1  0.38238  0.20403  0.31119  1
 F  F7  1  0.93017  0.79049  0.49357  1
 F  F8  1  0.79597  0.61762  0.18881  1
 F  F9  1  0.61762  0.79597  0.68881  1
 F  F10  1  0.89290  0.10710  0.25000  1
 F  F11  1  0.20951  0.06983  0.00643  1
 F  F12  1  0.50107  0.64467  0.39664  1
 F  F13  1  0.64467  0.50107  0.89664  1
 F  F14  1  0.20403  0.38238  0.81119  1
 Li  Li1  1  0.00000  0.50000  0.50000  1
 Li  Li2  1  0.50000  0.00000  -0.00000  1
 V  V1  1  0.85003  0.36012  0.19987  1
 V  V2  1  0.36012  0.85003  0.69987  1
 V  V3  1  0.63988  0.14997  0.30013  1
 V  V4  1  0.14997  0.63988  0.80013  1
