CIF file written using JARVIS-Tools package.
data_La4Co2Sn5
_symmetry_space_group_name_H-M  'C2/m'
_cell_length_a       7.50938
_cell_length_b       7.50938
_cell_length_c       11.0751
_cell_angle_alpha    53.9216
_cell_angle_beta     53.9216
_cell_angle_gamma    35.8025

_symmetry_Int_Tables_number  12
_chemical_formula_structural  La4Co2Sn5
_chemical_formula_sum  La4Co2Sn5
_cell_volume  286.9843026008439
_cell_formula_units_Z  1
loop_
  _symmetry_equiv_pos_site_id
 _symmetry_equiv_pos_as_xyz
 1  'x, y, z'
loop_
 _atom_site_type_symbol
 _atom_site_label
 _atom_site_symmetry_multiplicity
 _atom_site_fract_x
 _atom_site_fract_y
 _atom_site_fract_z
 _atom_site_fract_occupancy
 Co  Co1  1  0.77342  0.77342  0.14022  1
 Co  Co2  1  0.22658  0.22658  0.85978  1
 La  La1  1  0.93780  0.93780  0.72067  1
 La  La2  1  0.06220  0.06220  0.27933  1
 La  La3  1  0.33269  0.33269  0.28250  1
 La  La4  1  0.66731  0.66731  0.71750  1
 Sn  Sn1  1  0.65378  0.65378  0.02346  1
 Sn  Sn2  1  0.34622  0.34622  0.97654  1
 Sn  Sn3  1  0.62728  0.62728  0.44325  1
 Sn  Sn4  1  0.37272  0.37272  0.55675  1
 Sn  Sn5  1  0.00000  0.00000  0.00000  1
