CIF file written using JARVIS-Tools package.
data_Fe6O7F5
_symmetry_space_group_name_H-M  'P1'
_cell_length_a       4.56503
_cell_length_b       5.3715
_cell_length_c       7.47892
_cell_angle_alpha    84.5001
_cell_angle_beta     86.9354
_cell_angle_gamma    86.4341

_symmetry_Int_Tables_number  1
_chemical_formula_structural  Fe6O7F5
_chemical_formula_sum  Fe6O7F5
_cell_volume  181.98505672628932
_cell_formula_units_Z  1
loop_
  _symmetry_equiv_pos_site_id
 _symmetry_equiv_pos_as_xyz
 1  'x, y, z'
loop_
 _atom_site_type_symbol
 _atom_site_label
 _atom_site_symmetry_multiplicity
 _atom_site_fract_x
 _atom_site_fract_y
 _atom_site_fract_z
 _atom_site_fract_occupancy
 F  F1  1  0.21576  0.29433  0.91634  1
 F  F2  1  0.29286  0.79716  0.90253  1
 F  F3  1  0.79379  0.36663  0.43641  1
 F  F4  1  0.18669  0.62737  0.56625  1
 F  F5  1  0.19474  0.97256  0.21921  1
 Fe  Fe1  1  0.54158  0.84116  0.65959  1
 Fe  Fe2  1  0.98965  0.66460  0.31315  1
 Fe  Fe3  1  0.00048  0.31943  0.67652  1
 Fe  Fe4  1  0.49103  0.16947  0.33397  1
 Fe  Fe5  1  0.53057  0.50123  0.00902  1
 Fe  Fe6  1  0.95877  0.00022  -0.00173  1
 O  O1  1  0.30630  0.46739  0.23255  1
 O  O2  1  0.29888  0.12958  0.56804  1
 O  O3  1  0.70280  0.20759  0.10422  1
 O  O4  1  0.79315  0.70624  0.08964  1
 O  O5  1  0.80783  0.03342  0.77687  1
 O  O6  1  0.69980  0.52919  0.77651  1
 O  O7  1  0.69532  0.87244  0.42092  1
