CIF file written using JARVIS-Tools package.
data_CdH20C12O4
_symmetry_space_group_name_H-M  'P1'
_cell_length_a       3.87399
_cell_length_b       4.40052
_cell_length_c       17.3748
_cell_angle_alpha    83.82
_cell_angle_beta     91.0274
_cell_angle_gamma    83.0849

_symmetry_Int_Tables_number  1
_chemical_formula_structural  CdH20C12O4
_chemical_formula_sum  CdH20C2O4
_cell_volume  292.19043698297236
_cell_formula_units_Z  1
loop_
  _symmetry_equiv_pos_site_id
 _symmetry_equiv_pos_as_xyz
 1  'x, y, z'
loop_
 _atom_site_type_symbol
 _atom_site_label
 _atom_site_symmetry_multiplicity
 _atom_site_fract_x
 _atom_site_fract_y
 _atom_site_fract_z
 _atom_site_fract_occupancy
 C  C1  1  0.94363  0.99775  0.38573  1
 C  C2  1  0.49898  0.90406  0.74014  1
 C  C3  1  0.36549  0.79265  0.66732  1
 C  C4  1  0.16595  0.90014  0.52664  1
 C  C5  1  0.05138  0.13995  0.45772  1
 C  C6  1  0.27863  0.03970  0.59864  1
 C  C7  1  0.81755  0.23662  0.31734  1
 C  C8  1  0.71553  0.09432  0.24492  1
 C  C9  1  0.57791  0.33439  0.17765  1
 C  C10  1  0.47874  0.19447  0.10464  1
 C  C11  1  0.32291  0.44129  0.04052  1
 C  C12  1  0.20278  0.31526  0.96846  1
 Cd  Cd1  1  0.88710  -0.02456  0.86668  1
 H  H1  1  0.38120  0.73501  0.50962  1
 H  H2  1  0.57358  0.61611  0.65247  1
 H  H3  1  0.16517  0.84103  0.36803  1
 H  H4  1  0.14228  0.66860  0.68188  1
 H  H5  1  0.94239  0.94638  0.22626  1
 H  H6  1  0.95113  0.76293  0.54123  1
 H  H7  1  0.06880  0.21050  0.61475  1
 H  H8  1  0.51305  0.59835  0.02245  1
 H  H9  1  0.34889  0.47886  0.19654  1
 H  H10  1  0.77351  0.49264  0.16368  1
 H  H11  1  0.59274  0.38997  0.33487  1
 H  H12  1  0.73713  0.85159  0.40063  1
 H  H13  1  0.02143  0.38626  0.30314  1
 H  H14  1  0.26310  0.28089  0.44342  1
 H  H15  1  0.10044  0.58649  0.06134  1
 H  H16  1  0.50545  0.16291  0.58604  1
 H  H17  1  0.29210  0.02866  0.11924  1
 H  H18  1  0.70878  0.06062  0.08305  1
 H  H19  1  0.51688  0.93971  0.25958  1
 H  H20  1  0.83235  0.30133  0.47458  1
 O  O1  1  0.71237  0.10296  0.73649  1
 O  O2  1  0.94632  0.45917  0.92648  1
 O  O3  1  0.41535  0.77566  0.80656  1
 O  O4  1  0.34577  0.05415  0.95166  1
