CIF file written using JARVIS-Tools package.
data_Zr3Tl2Cu2Se8
_symmetry_space_group_name_H-M  'C2/m'
_cell_length_a       7.54268
_cell_length_b       7.54269
_cell_length_c       14.4486
_cell_angle_alpha    67.24
_cell_angle_beta     67.24
_cell_angle_gamma    29.562

_symmetry_Int_Tables_number  12
_chemical_formula_structural  Zr3Tl2Cu2Se8
_chemical_formula_sum  Zr3Tl2Cu2Se8
_cell_volume  371.6734998537308
_cell_formula_units_Z  1
loop_
  _symmetry_equiv_pos_site_id
 _symmetry_equiv_pos_as_xyz
 1  'x, y, z'
loop_
 _atom_site_type_symbol
 _atom_site_label
 _atom_site_symmetry_multiplicity
 _atom_site_fract_x
 _atom_site_fract_y
 _atom_site_fract_z
 _atom_site_fract_occupancy
 Cu  Cu1  1  0.45718  0.45718  0.19761  1
 Cu  Cu2  1  0.54282  0.54282  0.80239  1
 Se  Se1  1  0.85307  0.85307  0.18953  1
 Se  Se2  1  0.14693  0.14693  0.81047  1
 Se  Se3  1  0.80126  0.80126  0.58079  1
 Se  Se4  1  0.19874  0.19874  0.41921  1
 Se  Se5  1  0.48209  0.48209  0.35506  1
 Se  Se6  1  0.51791  0.51791  0.64494  1
 Se  Se7  1  0.60994  0.60994  0.04251  1
 Se  Se8  1  0.39006  0.39006  0.95749  1
 Tl  Tl1  1  0.83430  0.83430  0.79984  1
 Tl  Tl2  1  0.16570  0.16570  0.20016  1
 Zr  Zr1  1  0.00000  0.00000  0.00000  1
 Zr  Zr2  1  0.84314  0.84314  0.38018  1
 Zr  Zr3  1  0.15686  0.15686  0.61982  1
