CIF file written using JARVIS-Tools package.
data_Li5Co7O12
_symmetry_space_group_name_H-M  'C2'
_cell_length_a       4.95779
_cell_length_b       4.95779
_cell_length_c       9.5472
_cell_angle_alpha    84.6229
_cell_angle_beta     84.6229
_cell_angle_gamma    120.246

_symmetry_Int_Tables_number  5
_chemical_formula_structural  Li5Co7O12
_chemical_formula_sum  Li5Co7O2
_cell_volume  199.10235412407943
_cell_formula_units_Z  1
loop_
  _symmetry_equiv_pos_site_id
 _symmetry_equiv_pos_as_xyz
 1  'x, y, z'
loop_
 _atom_site_type_symbol
 _atom_site_label
 _atom_site_symmetry_multiplicity
 _atom_site_fract_x
 _atom_site_fract_y
 _atom_site_fract_z
 _atom_site_fract_occupancy
 Co  Co1  1  0.75402  0.24598  -0.00000  1
 Co  Co2  1  0.91235  0.08765  0.50000  1
 Co  Co3  1  0.00147  0.51498  0.24071  1
 Co  Co4  1  0.24576  0.75424  0.50000  1
 Co  Co5  1  0.48502  0.99853  0.75929  1
 Co  Co6  1  0.42261  0.57739  -0.00000  1
 Co  Co7  1  0.57803  0.42197  0.50000  1
 Li  Li1  1  0.83826  0.67196  0.75934  1
 Li  Li2  1  0.16512  0.32377  0.75920  1
 Li  Li3  1  0.32804  0.16174  0.24066  1
 Li  Li4  1  0.67623  0.83488  0.24080  1
 Li  Li5  1  0.08507  0.91493  -0.00000  1
 O  O1  1  0.13902  0.60751  0.88258  1
 O  O2  1  0.21179  0.04792  0.60970  1
 O  O3  1  0.04664  0.22670  0.11615  1
 O  O4  1  0.77330  0.95336  0.88385  1
 O  O5  1  0.86231  0.37181  0.61083  1
 O  O6  1  0.62819  0.13769  0.38917  1
 O  O7  1  0.70164  0.51716  0.11640  1
 O  O8  1  0.48284  0.29836  0.88360  1
 O  O9  1  0.53874  0.72103  0.60842  1
 O  O10  1  0.27897  0.46126  0.39158  1
 O  O11  1  0.39249  0.86098  0.11742  1
 O  O12  1  0.95208  0.78821  0.39030  1
