CIF file written using JARVIS-Tools package.
data_Yb2Be2SiO7
_symmetry_space_group_name_H-M  'P-42_1m'
_cell_length_a       7.36006
_cell_length_b       7.36006
_cell_length_c       4.64574
_cell_angle_alpha    90
_cell_angle_beta     90
_cell_angle_gamma    90

_symmetry_Int_Tables_number  113
_chemical_formula_structural  Yb2Be2SiO7
_chemical_formula_sum  Yb4Be4Si2O4
_cell_volume  251.66142160311918
_cell_formula_units_Z  2
loop_
  _symmetry_equiv_pos_site_id
 _symmetry_equiv_pos_as_xyz
 1  'x, y, z'
loop_
 _atom_site_type_symbol
 _atom_site_label
 _atom_site_symmetry_multiplicity
 _atom_site_fract_x
 _atom_site_fract_y
 _atom_site_fract_z
 _atom_site_fract_occupancy
 Be  Be1  1  0.64543  0.85457  0.94080  1
 Be  Be2  1  0.35457  0.14543  0.94080  1
 Be  Be3  1  0.14543  0.64543  0.05920  1
 Be  Be4  1  0.85457  0.35457  0.05920  1
 O  O1  1  0.83686  0.91849  0.79538  1
 O  O2  1  0.00000  0.50000  0.14476  1
 O  O3  1  0.33686  0.58151  0.20462  1
 O  O4  1  0.62232  0.87768  0.28506  1
 O  O5  1  0.37768  0.12232  0.28506  1
 O  O6  1  0.12232  0.62232  0.71494  1
 O  O7  1  0.50000  0.00000  0.85524  1
 O  O8  1  0.08151  0.83686  0.20462  1
 O  O9  1  0.91849  0.16314  0.20462  1
 O  O10  1  0.66314  0.41849  0.20462  1
 O  O11  1  0.41849  0.33686  0.79538  1
 O  O12  1  0.87768  0.37768  0.71494  1
 O  O13  1  0.58151  0.66314  0.79538  1
 O  O14  1  0.16314  0.08151  0.79538  1
 Si  Si1  1  0.50000  0.50000  0.00000  1
 Si  Si2  1  0.00000  0.00000  0.00000  1
 Yb  Yb1  1  0.33516  0.83516  0.50976  1
 Yb  Yb2  1  0.66484  0.16484  0.50976  1
 Yb  Yb3  1  0.83516  0.66484  0.49024  1
 Yb  Yb4  1  0.16484  0.33516  0.49024  1
