CIF file written using JARVIS-Tools package.
data_SnH4C2Cl2
_symmetry_space_group_name_H-M  'P-1'
_cell_length_a       4.63129
_cell_length_b       6.18169
_cell_length_c       9.42246
_cell_angle_alpha    98.2982
_cell_angle_beta     94.6922
_cell_angle_gamma    110.251

_symmetry_Int_Tables_number  2
_chemical_formula_structural  SnH4C2Cl2
_chemical_formula_sum  Sn2H8C4Cl4
_cell_volume  247.89675171655307
_cell_formula_units_Z  2
loop_
  _symmetry_equiv_pos_site_id
 _symmetry_equiv_pos_as_xyz
 1  'x, y, z'
loop_
 _atom_site_type_symbol
 _atom_site_label
 _atom_site_symmetry_multiplicity
 _atom_site_fract_x
 _atom_site_fract_y
 _atom_site_fract_z
 _atom_site_fract_occupancy
 C  C1  1  0.83825  -0.01281  0.95292  1
 C  C2  1  0.17429  0.05220  0.00125  1
 C  C3  1  0.66414  0.57456  0.52035  1
 C  C4  1  0.34835  0.46479  0.43382  1
 Cl  Cl1  1  0.16758  0.50712  0.80348  1
 Cl  Cl2  1  0.63763  0.01372  0.30396  1
 Cl  Cl3  1  0.84493  0.53226  0.15072  1
 Cl  Cl4  1  0.37487  0.02563  0.65022  1
 H  H1  1  0.24817  0.59025  0.40250  1
 H  H2  1  0.68996  0.87238  0.01716  1
 H  H3  1  0.76432  0.44911  0.55168  1
 H  H4  1  0.83029  0.70875  0.47316  1
 H  H5  1  0.77217  0.13858  0.94341  1
 H  H6  1  0.24038  0.90082  0.01074  1
 H  H7  1  0.18220  0.33060  0.48102  1
 H  H8  1  0.32258  0.16703  0.93701  1
 Sn  Sn1  1  0.36744  0.26427  0.22220  1
 Sn  Sn2  1  0.64506  0.77509  0.73198  1
