CIF file written using JARVIS-Tools package.
data_Sb2SO2
_symmetry_space_group_name_H-M  'Imm2'
_cell_length_a       6.38692
_cell_length_b       6.38692
_cell_length_c       3.62874
_cell_angle_alpha    73.4964
_cell_angle_beta     73.4964
_cell_angle_gamma    43.1242

_symmetry_Int_Tables_number  44
_chemical_formula_structural  Sb2SO2
_chemical_formula_sum  Sb2SO2
_cell_volume  96.35218927909776
_cell_formula_units_Z  1
loop_
  _symmetry_equiv_pos_site_id
 _symmetry_equiv_pos_as_xyz
 1  'x, y, z'
loop_
 _atom_site_type_symbol
 _atom_site_label
 _atom_site_symmetry_multiplicity
 _atom_site_fract_x
 _atom_site_fract_y
 _atom_site_fract_z
 _atom_site_fract_occupancy
 O  O1  1  0.32689  0.32689  0.67311  1
 O  O2  1  0.01041  0.01041  -0.01041  1
 S  S1  1  0.06207  0.06207  0.43793  1
 Sb  Sb1  1  0.67982  0.67982  0.32018  1
 Sb  Sb2  1  0.42080  0.42080  0.07920  1
