CIF file written using JARVIS-Tools package.
data_SnH4C2F2
_symmetry_space_group_name_H-M  'C2/c'
_cell_length_a       3.64475
_cell_length_b       7.05869
_cell_length_c       6.98479
_cell_angle_alpha    78.6342
_cell_angle_beta     74.8758
_cell_angle_gamma    75.0348

_symmetry_Int_Tables_number  15
_chemical_formula_structural  SnH4C2F2
_chemical_formula_sum  Sn2H8C4F4
_cell_volume  165.96214910165497
_cell_formula_units_Z  2
loop_
  _symmetry_equiv_pos_site_id
 _symmetry_equiv_pos_as_xyz
 1  'x, y, z'
loop_
 _atom_site_type_symbol
 _atom_site_label
 _atom_site_symmetry_multiplicity
 _atom_site_fract_x
 _atom_site_fract_y
 _atom_site_fract_z
 _atom_site_fract_occupancy
 C  C1  1  0.14411  0.77366  0.85182  1
 C  C2  1  0.18048  0.80992  0.62835  1
 C  C3  1  0.73765  0.30994  0.12835  1
 C  C4  1  0.58693  0.27365  0.35182  1
 F  F1  1  0.37601  0.94422  0.17474  1
 F  F2  1  0.94863  0.63937  0.30543  1
 F  F3  1  0.46307  0.13939  0.80540  1
 F  F4  1  0.86157  0.44418  0.67477  1
 H  H1  1  0.90054  0.86725  0.58572  1
 H  H2  1  0.95024  0.67467  0.93177  1
 H  H3  1  0.37430  0.90893  0.54841  1
 H  H4  1  0.52466  0.40894  0.04844  1
 H  H5  1  0.79989  0.17463  0.43173  1
 H  H6  1  0.32170  0.21631  0.39448  1
 H  H7  1  0.00283  0.36732  0.08568  1
 H  H8  1  0.42404  0.71630  0.89446  1
 Sn  Sn1  1  0.91265  0.04182  0.99007  1
 Sn  Sn2  1  0.41205  0.54177  0.49010  1
