CIF file written using JARVIS-Tools package.
data_LiCr2O4
_symmetry_space_group_name_H-M  'C2/c'
_cell_length_a       5.81997
_cell_length_b       5.81997
_cell_length_c       5.00479
_cell_angle_alpha    74.0539
_cell_angle_beta     74.054
_cell_angle_gamma    60.0678

_symmetry_Int_Tables_number  15
_chemical_formula_structural  LiCr2O4
_chemical_formula_sum  Li2Cr4O8
_cell_volume  139.31676302945107
_cell_formula_units_Z  2
loop_
  _symmetry_equiv_pos_site_id
 _symmetry_equiv_pos_as_xyz
 1  'x, y, z'
loop_
 _atom_site_type_symbol
 _atom_site_label
 _atom_site_symmetry_multiplicity
 _atom_site_fract_x
 _atom_site_fract_y
 _atom_site_fract_z
 _atom_site_fract_occupancy
 Cr  Cr1  1  0.37069  0.12047  0.75844  1
 Cr  Cr2  1  0.62931  0.87953  0.24156  1
 Cr  Cr3  1  0.87953  0.62931  0.74156  1
 Cr  Cr4  1  0.12047  0.37069  0.25844  1
 Li  Li1  1  0.64705  0.35295  0.25000  1
 Li  Li2  1  0.35295  0.64705  0.75000  1
 O  O1  1  0.72207  0.98504  0.51266  1
 O  O2  1  0.52513  0.75994  0.97917  1
 O  O3  1  0.27793  0.01496  0.48734  1
 O  O4  1  0.75994  0.52513  0.47917  1
 O  O5  1  0.98504  0.72207  0.01266  1
 O  O6  1  0.47487  0.24006  0.02083  1
 O  O7  1  0.24006  0.47487  0.52083  1
 O  O8  1  0.01496  0.27793  0.98734  1
