CIF file written using JARVIS-Tools package.
data_SnH12C6F2
_symmetry_space_group_name_H-M  'P1'
_cell_length_a       4.26834
_cell_length_b       4.76989
_cell_length_c       18.7635
_cell_angle_alpha    86.3429
_cell_angle_beta     86.5075
_cell_angle_gamma    65.712

_symmetry_Int_Tables_number  1
_chemical_formula_structural  SnH12C6F2
_chemical_formula_sum  Sn2H24C2F4
_cell_volume  347.2406366741439
_cell_formula_units_Z  2
loop_
  _symmetry_equiv_pos_site_id
 _symmetry_equiv_pos_as_xyz
 1  'x, y, z'
loop_
 _atom_site_type_symbol
 _atom_site_label
 _atom_site_symmetry_multiplicity
 _atom_site_fract_x
 _atom_site_fract_y
 _atom_site_fract_z
 _atom_site_fract_occupancy
 C  C1  1  0.47025  0.38016  0.08198  1
 C  C2  1  0.00466  0.84246  0.70585  1
 C  C3  1  0.75474  0.09290  0.11382  1
 C  C4  1  0.75179  0.11931  0.19499  1
 C  C5  1  0.26441  0.64588  0.35928  1
 C  C6  1  0.50060  0.40382  0.85618  1
 C  C7  1  0.02295  0.84793  0.23535  1
 C  C8  1  0.00961  0.91253  0.31479  1
 C  C9  1  0.77611  0.11203  0.82569  1
 C  C10  1  0.73901  0.11805  0.74463  1
 C  C11  1  0.22779  0.62449  0.58222  1
 C  C12  1  0.96252  0.88675  0.62479  1
 F  F1  1  0.24940  -0.05462  0.96642  1
 F  F2  1  -0.08852  0.57326  0.97028  1
 F  F3  1  0.65073  0.85215  0.47085  1
 F  F4  1  0.98172  0.22074  0.46861  1
 H  H1  1  0.28137  0.80208  0.21184  1
 H  H2  1  -0.01755  0.63668  0.22966  1
 H  H3  1  0.52871  0.61033  0.83318  1
 H  H4  1  0.24189  0.42641  0.84490  1
 H  H5  1  0.75330  0.90820  0.85187  1
 H  H6  1  0.53384  0.59428  0.34383  1
 H  H7  1  0.22196  0.43482  0.35757  1
 H  H8  1  0.21352  0.39161  0.09750  1
 H  H9  1  0.48479  0.58901  0.10007  1
 H  H10  1  0.00652  0.06410  0.08959  1
 H  H11  1  0.71914  0.88610  0.10111  1
 H  H12  1  0.70103  0.91808  0.61231  1
 H  H13  1  0.49281  0.57487  0.59536  1
 H  H14  1  0.18927  0.41079  0.58905  1
 H  H15  1  0.03396  0.09209  0.83738  1
 H  H16  1  0.26621  0.81259  0.71794  1
 H  H17  1  0.75327  0.32964  0.72043  1
 H  H18  1  0.47837  0.13951  0.73408  1
 H  H19  1  0.97873  0.10533  0.60735  1
 H  H20  1  0.49472  0.15652  0.21826  1
 H  H21  1  -0.21397  0.33026  0.20507  1
 H  H22  1  0.74635  -0.02918  0.33684  1
 H  H23  1  0.05686  0.12103  0.31934  1
 H  H24  1  -0.01756  0.62858  0.72561  1
 Sn  Sn1  1  0.45522  0.47559  0.96870  1
 Sn  Sn2  1  0.19554  0.75325  0.47017  1
