CIF file written using JARVIS-Tools package.
data_LiFeSi3O8
_symmetry_space_group_name_H-M  'P-1'
_cell_length_a       7.5807
_cell_length_b       7.63633
_cell_length_c       7.01133
_cell_angle_alpha    84.5021
_cell_angle_beta     109.811
_cell_angle_gamma    62.1224

_symmetry_Int_Tables_number  2
_chemical_formula_structural  LiFeSi3O8
_chemical_formula_sum  Li2Fe2Si6O6
_cell_volume  321.3735926542989
_cell_formula_units_Z  2
loop_
  _symmetry_equiv_pos_site_id
 _symmetry_equiv_pos_as_xyz
 1  'x, y, z'
loop_
 _atom_site_type_symbol
 _atom_site_label
 _atom_site_symmetry_multiplicity
 _atom_site_fract_x
 _atom_site_fract_y
 _atom_site_fract_z
 _atom_site_fract_occupancy
 Fe  Fe1  1  0.46361  0.78862  0.62921  1
 Fe  Fe2  1  0.53639  0.21138  0.37079  1
 Li  Li1  1  0.26143  0.71660  0.15736  1
 Li  Li2  1  0.73857  0.28340  0.84264  1
 O  O1  1  0.11766  0.73893  0.83004  1
 O  O2  1  0.34412  0.98830  0.74986  1
 O  O3  1  0.65588  0.01170  0.25014  1
 O  O4  1  0.28662  0.90123  0.32751  1
 O  O5  1  0.08742  0.16860  0.94271  1
 O  O6  1  0.46455  0.54805  0.73676  1
 O  O7  1  0.06345  0.66632  0.45738  1
 O  O8  1  0.75322  0.72126  0.70577  1
 O  O9  1  0.72591  0.65117  0.18759  1
 O  O10  1  0.53545  0.45195  0.26324  1
 O  O11  1  0.71338  0.09877  0.67249  1
 O  O12  1  0.27409  0.34883  0.81241  1
 O  O13  1  0.93655  0.33368  0.54262  1
 O  O14  1  0.24678  0.27874  0.29423  1
 O  O15  1  0.91258  0.83140  0.05729  1
 O  O16  1  0.88234  0.26107  0.16996  1
 Si  Si1  1  0.16704  0.20670  0.75954  1
 Si  Si2  1  0.23108  0.57339  0.70916  1
 Si  Si3  1  0.85871  0.85170  0.80483  1
 Si  Si4  1  0.14129  0.14830  0.19517  1
 Si  Si5  1  0.83296  0.79330  0.24046  1
 Si  Si6  1  0.76892  0.42661  0.29084  1
