CIF file written using JARVIS-Tools package.
data_Tm5SbPt2
_symmetry_space_group_name_H-M  'I4/mcm'
_cell_length_a       8.58296
_cell_length_b       8.58296
_cell_length_c       8.58296
_cell_angle_alpha    126.971
_cell_angle_beta     126.971
_cell_angle_gamma    78.2976

_symmetry_Int_Tables_number  140
_chemical_formula_structural  Tm5SbPt2
_chemical_formula_sum  Tm0Sb2Pt4
_cell_volume  390.8859943110434
_cell_formula_units_Z  2
loop_
  _symmetry_equiv_pos_site_id
 _symmetry_equiv_pos_as_xyz
 1  'x, y, z'
loop_
 _atom_site_type_symbol
 _atom_site_label
 _atom_site_symmetry_multiplicity
 _atom_site_fract_x
 _atom_site_fract_y
 _atom_site_fract_z
 _atom_site_fract_occupancy
 Pt  Pt1  1  0.14052  0.64052  0.78104  1
 Pt  Pt2  1  0.85948  0.35948  0.21896  1
 Pt  Pt3  1  0.64052  0.85948  0.50000  1
 Pt  Pt4  1  0.35948  0.14052  0.50000  1
 Sb  Sb1  1  0.25000  0.25000  -0.00000  1
 Sb  Sb2  1  0.75000  0.75000  0.00000  1
 Tm  Tm1  1  0.00000  0.00000  0.00000  1
 Tm  Tm2  1  0.50000  0.50000  -0.00000  1
 Tm  Tm3  1  0.79517  0.29517  0.81101  1
 Tm  Tm4  1  0.20483  0.70483  0.18899  1
 Tm  Tm5  1  0.48416  0.98416  0.18899  1
 Tm  Tm6  1  0.29517  0.48416  0.50000  1
 Tm  Tm7  1  0.01584  0.20483  0.50000  1
 Tm  Tm8  1  0.51584  0.01584  0.81101  1
 Tm  Tm9  1  0.70483  0.51584  0.50000  1
 Tm  Tm10  1  0.98416  0.79517  0.50000  1
