CIF file written using JARVIS-Tools package.
data_Li4Mn2Ni3O10
_symmetry_space_group_name_H-M  'P-1'
_cell_length_a       4.96876
_cell_length_b       5.06322
_cell_length_c       7.50541
_cell_angle_alpha    102.946
_cell_angle_beta     109.006
_cell_angle_gamma    99.8596

_symmetry_Int_Tables_number  2
_chemical_formula_structural  Li4Mn2Ni3O10
_chemical_formula_sum  Li4Mn2Ni3O0
_cell_volume  167.7686711732768
_cell_formula_units_Z  1
loop_
  _symmetry_equiv_pos_site_id
 _symmetry_equiv_pos_as_xyz
 1  'x, y, z'
loop_
 _atom_site_type_symbol
 _atom_site_label
 _atom_site_symmetry_multiplicity
 _atom_site_fract_x
 _atom_site_fract_y
 _atom_site_fract_z
 _atom_site_fract_occupancy
 Li  Li1  1  0.08774  0.76748  0.59113  1
 Li  Li2  1  0.69173  0.59589  0.21748  1
 Li  Li3  1  0.30827  0.40411  0.78252  1
 Li  Li4  1  0.91226  0.23252  0.40887  1
 Mn  Mn1  1  0.29579  0.89805  0.30801  1
 Mn  Mn2  1  0.70421  0.10195  0.69199  1
 Ni  Ni1  1  0.50000  -0.00000  0.00000  1
 Ni  Ni2  1  0.89694  0.69513  0.89658  1
 Ni  Ni3  1  0.10306  0.30487  0.10342  1
 O  O1  1  0.31238  0.10913  0.54952  1
 O  O2  1  0.68762  0.89087  0.45048  1
 O  O3  1  0.28785  0.67293  0.05310  1
 O  O4  1  0.91303  0.93291  0.14364  1
 O  O5  1  0.71215  0.32707  0.94690  1
 O  O6  1  0.89854  0.43794  0.66963  1
 O  O7  1  0.46411  0.22016  0.23255  1
 O  O8  1  0.53589  0.77984  0.76745  1
 O  O9  1  0.10146  0.56206  0.33037  1
 O  O10  1  0.08697  0.06709  0.85636  1
