CIF file written using JARVIS-Tools package.
data_H20PbC12O4
_symmetry_space_group_name_H-M  'P1'
_cell_length_a       4.01929
_cell_length_b       4.74603
_cell_length_c       16.278
_cell_angle_alpha    90.1169
_cell_angle_beta     93.4039
_cell_angle_gamma    99.0425

_symmetry_Int_Tables_number  1
_chemical_formula_structural  H20PbC12O4
_chemical_formula_sum  H20PbC2O4
_cell_volume  306.0928879433639
_cell_formula_units_Z  1
loop_
  _symmetry_equiv_pos_site_id
 _symmetry_equiv_pos_as_xyz
 1  'x, y, z'
loop_
 _atom_site_type_symbol
 _atom_site_label
 _atom_site_symmetry_multiplicity
 _atom_site_fract_x
 _atom_site_fract_y
 _atom_site_fract_z
 _atom_site_fract_occupancy
 C  C1  1  0.94110  0.08286  0.62778  1
 C  C2  1  0.53145  0.22996  0.26911  1
 C  C3  1  0.42391  0.35668  0.34704  1
 C  C4  1  0.17450  0.24139  0.48766  1
 C  C5  1  0.03856  -0.00482  0.54317  1
 C  C6  1  0.25630  0.12889  0.40430  1
 C  C7  1  0.81874  0.82344  0.67983  1
 C  C8  1  0.71445  0.89473  0.76526  1
 C  C9  1  0.59697  0.62713  0.81429  1
 C  C10  1  0.48749  0.68378  0.90045  1
 C  C11  1  0.34718  0.40470  0.94148  1
 C  C12  1  0.20392  0.42947  0.02471  1
 H  H1  1  0.64847  0.48677  0.37757  1
 H  H2  1  0.40338  0.36725  0.51804  1
 H  H3  1  0.16025  0.21509  0.66036  1
 H  H4  1  0.74324  0.21901  0.62067  1
 H  H5  1  0.25189  0.50678  0.32774  1
 H  H6  1  0.51185  0.02642  0.75947  1
 H  H7  1  0.98957  0.38903  0.47923  1
 H  H8  1  0.14603  0.28078  0.90152  1
 H  H9  1  0.54494  0.26964  0.95095  1
 H  H10  1  0.38437  0.49636  0.77886  1
 H  H11  1  0.79988  0.49554  0.81907  1
 H  H12  1  0.60335  0.69024  0.64604  1
 H  H13  1  0.92942  0.02655  0.79931  1
 H  H14  1  0.01924  0.68954  0.68639  1
 H  H15  1  0.22956  0.85259  0.55145  1
 H  H16  1  0.02370  0.01396  0.37281  1
 H  H17  1  0.42262  -0.03294  0.41492  1
 H  H18  1  0.29236  0.82270  0.89623  1
 H  H19  1  0.70053  0.80075  0.93871  1
 H  H20  1  0.81652  0.86523  0.51096  1
 O  O1  1  0.38809  -0.02286  0.24657  1
 O  O2  1  -0.02174  0.22920  0.04544  1
 O  O3  1  0.76571  0.36740  0.22906  1
 O  O4  1  0.31051  0.65183  0.07018  1
 Pb  Pb1  1  0.85730  0.85412  0.15105  1
