CIF file written using JARVIS-Tools package.
data_SmCrSb3
_symmetry_space_group_name_H-M  'Pbcm'
_cell_length_a       6.09027
_cell_length_b       6.24991
_cell_length_c       12.9483
_cell_angle_alpha    90
_cell_angle_beta     90
_cell_angle_gamma    90

_symmetry_Int_Tables_number  57
_chemical_formula_structural  SmCrSb3
_chemical_formula_sum  Sm4Cr4Sb2
_cell_volume  492.85910952857364
_cell_formula_units_Z  4
loop_
  _symmetry_equiv_pos_site_id
 _symmetry_equiv_pos_as_xyz
 1  'x, y, z'
loop_
 _atom_site_type_symbol
 _atom_site_label
 _atom_site_symmetry_multiplicity
 _atom_site_fract_x
 _atom_site_fract_y
 _atom_site_fract_z
 _atom_site_fract_occupancy
 Cr  Cr1  1  0.00000  0.75000  0.90603  1
 Cr  Cr2  1  0.00000  0.25000  0.09397  1
 Cr  Cr3  1  0.50000  0.25000  0.09397  1
 Cr  Cr4  1  0.50000  0.75000  0.90603  1
 Sb  Sb1  1  0.25000  0.00432  0.22444  1
 Sb  Sb2  1  0.00000  0.75000  0.50211  1
 Sb  Sb3  1  0.25000  0.50432  0.77556  1
 Sb  Sb4  1  0.50000  0.25000  0.49789  1
 Sb  Sb5  1  0.50000  0.75000  0.50211  1
 Sb  Sb6  1  0.00000  0.25000  0.49789  1
 Sb  Sb7  1  0.75000  0.39987  0.93648  1
 Sb  Sb8  1  0.75000  0.49568  0.22444  1
 Sb  Sb9  1  0.75000  0.89987  0.06352  1
 Sb  Sb10  1  0.25000  0.60013  0.06352  1
 Sb  Sb11  1  0.75000  -0.00432  0.77556  1
 Sb  Sb12  1  0.25000  0.10013  0.93648  1
 Sm  Sm1  1  0.75000  0.99383  0.30916  1
 Sm  Sm2  1  0.25000  0.00617  0.69084  1
 Sm  Sm3  1  0.75000  0.49383  0.69084  1
 Sm  Sm4  1  0.25000  0.50617  0.30916  1
