CIF file written using JARVIS-Tools package.
data_H3C2
_symmetry_space_group_name_H-M  'P-1'
_cell_length_a       7.57239
_cell_length_b       7.85556
_cell_length_c       8.09937
_cell_angle_alpha    68.8963
_cell_angle_beta     73.7793
_cell_angle_gamma    76.6051

_symmetry_Int_Tables_number  2
_chemical_formula_structural  H3C2
_chemical_formula_sum  H36C24
_cell_volume  426.9421617379876
_cell_formula_units_Z  12
loop_
  _symmetry_equiv_pos_site_id
 _symmetry_equiv_pos_as_xyz
 1  'x, y, z'
loop_
 _atom_site_type_symbol
 _atom_site_label
 _atom_site_symmetry_multiplicity
 _atom_site_fract_x
 _atom_site_fract_y
 _atom_site_fract_z
 _atom_site_fract_occupancy
 C  C1  1  0.68686  0.09582  0.10292  1
 C  C2  1  0.80380  0.62512  0.34628  1
 C  C3  1  0.40022  0.27828  0.62357  1
 C  C4  1  0.59978  0.72172  0.37643  1
 C  C5  1  0.38549  0.92779  0.68868  1
 C  C6  1  0.75817  0.20023  0.28959  1
 C  C7  1  0.24183  0.79977  0.71041  1
 C  C8  1  0.16064  0.79551  0.90957  1
 C  C9  1  0.19620  0.37488  0.65372  1
 C  C10  1  0.61451  0.07221  0.31132  1
 C  C11  1  0.86755  0.77962  0.38290  1
 C  C12  1  0.83936  0.20449  0.09043  1
 C  C13  1  0.65908  0.87057  0.43178  1
 C  C14  1  0.31314  0.90418  0.89708  1
 C  C15  1  0.40778  0.15391  0.36288  1
 C  C16  1  0.63861  0.64212  0.76299  1
 C  C17  1  0.36139  0.35788  0.23701  1
 C  C18  1  0.23873  0.29353  0.15275  1
 C  C19  1  0.59222  0.84609  0.63712  1
 C  C20  1  0.27529  0.09363  0.28018  1
 C  C21  1  0.72471  0.90637  0.71982  1
 C  C22  1  0.34092  0.12943  0.56822  1
 C  C23  1  0.76127  0.70647  0.84725  1
 C  C24  1  0.13245  0.22038  0.61710  1
 H  H1  1  0.84954  0.95585  0.62275  1
 H  H2  1  0.95374  0.86563  0.26314  1
 H  H3  1  0.34182  0.99087  0.21122  1
 H  H4  1  0.04626  0.13437  0.73686  1
 H  H5  1  0.94256  0.73223  0.49304  1
 H  H6  1  0.05744  0.26777  0.50696  1
 H  H7  1  0.48232  0.41780  0.14090  1
 H  H8  1  0.29206  0.31002  0.00787  1
 H  H9  1  0.49977  0.36207  0.51844  1
 H  H10  1  0.50023  0.63793  0.48156  1
 H  H11  1  0.45490  0.22162  0.74740  1
 H  H12  1  0.54510  0.77838  0.25260  1
 H  H13  1  0.14405  0.85809  0.62009  1
 H  H14  1  0.85595  0.14191  0.37991  1
 H  H15  1  0.30738  0.66394  0.69851  1
 H  H16  1  0.69262  0.33606  0.30149  1
 H  H17  1  0.01901  0.87009  0.93231  1
 H  H18  1  0.16254  0.65773  0.01043  1
 H  H19  1  0.83746  0.34227  0.98957  1
 H  H20  1  0.26180  0.03306  0.93017  1
 H  H21  1  0.65818  0.00913  0.78878  1
 H  H22  1  0.73820  0.96694  0.06983  1
 H  H23  1  0.58591  0.17761  0.01931  1
 H  H24  1  0.86302  0.61254  0.21042  1
 H  H25  1  0.13698  0.38746  0.78958  1
 H  H26  1  0.98099  0.12991  0.06769  1
 H  H27  1  0.17259  0.51195  0.55457  1
 H  H28  1  0.82741  0.48805  0.44543  1
 H  H29  1  0.51768  0.58220  0.85910  1
 H  H30  1  0.28549  0.45712  0.30832  1
 H  H31  1  0.71451  0.54288  0.69168  1
 H  H32  1  0.70794  0.68998  -0.00787  1
 H  H33  1  0.09255  0.35737  0.17158  1
 H  H34  1  0.90745  0.64263  0.82842  1
 H  H35  1  0.41409  0.82239  0.98069  1
 H  H36  1  0.15046  0.04415  0.37725  1
