CIF file written using JARVIS-Tools package.
data_TiSO2
_symmetry_space_group_name_H-M  'P4mm'
_cell_length_a       2.79492
_cell_length_b       2.79492
_cell_length_c       8.03196
_cell_angle_alpha    90
_cell_angle_beta     90
_cell_angle_gamma    90

_symmetry_Int_Tables_number  99
_chemical_formula_structural  TiSO2
_chemical_formula_sum  TiSO2
_cell_volume  62.74222272109038
_cell_formula_units_Z  1
loop_
  _symmetry_equiv_pos_site_id
 _symmetry_equiv_pos_as_xyz
 1  'x, y, z'
loop_
 _atom_site_type_symbol
 _atom_site_label
 _atom_site_symmetry_multiplicity
 _atom_site_fract_x
 _atom_site_fract_y
 _atom_site_fract_z
 _atom_site_fract_occupancy
 O  O1  1  0.00000  0.00000  0.52656  1
 O  O2  1  0.50000  0.50000  0.78797  1
 S  S1  1  0.00000  0.00000  0.11063  1
 Ti  Ti1  1  0.50000  0.50000  0.58484  1
