CIF file written using JARVIS-Tools package.
data_H8PbC6O4
_symmetry_space_group_name_H-M  'P-1'
_cell_length_a       4.22736
_cell_length_b       7.6932
_cell_length_c       10.8609
_cell_angle_alpha    96.4156
_cell_angle_beta     99.7851
_cell_angle_gamma    93.0004

_symmetry_Int_Tables_number  2
_chemical_formula_structural  H8PbC6O4
_chemical_formula_sum  H6Pb2C2O8
_cell_volume  344.9816925206525
_cell_formula_units_Z  2
loop_
  _symmetry_equiv_pos_site_id
 _symmetry_equiv_pos_as_xyz
 1  'x, y, z'
loop_
 _atom_site_type_symbol
 _atom_site_label
 _atom_site_symmetry_multiplicity
 _atom_site_fract_x
 _atom_site_fract_y
 _atom_site_fract_z
 _atom_site_fract_occupancy
 C  C1  1  0.71151  0.26085  0.31784  1
 C  C2  1  0.81765  0.21023  0.54786  1
 C  C3  1  0.95090  0.13449  0.77443  1
 C  C4  1  0.08819  0.70961  0.66376  1
 C  C5  1  0.07258  0.20363  0.66500  1
 C  C6  1  0.82235  0.71003  0.54888  1
 C  C7  1  0.97502  0.67672  0.78466  1
 C  C8  1  0.69585  0.75488  0.31906  1
 C  C9  1  0.96168  0.75447  0.43394  1
 C  C10  1  0.96643  0.25426  0.43499  1
 C  C11  1  0.80904  0.78774  0.19816  1
 C  C12  1  0.83322  0.33001  0.20842  1
 H  H1  1  0.64845  0.30821  0.56950  1
 H  H2  1  0.20431  0.33182  0.69837  1
 H  H3  1  0.23811  0.83335  0.68057  1
 H  H4  1  0.25772  0.11553  0.64291  1
 H  H5  1  0.57980  0.13266  0.28446  1
 H  H6  1  0.54593  0.63114  0.30226  1
 H  H7  1  0.52636  0.34895  0.33992  1
 H  H8  1  0.25025  0.60551  0.64566  1
 H  H9  1  0.09802  0.88333  0.45545  1
 H  H10  1  0.13565  0.15629  0.41335  1
 H  H11  1  0.13186  0.65780  0.41163  1
 H  H12  1  0.53379  0.85898  0.33715  1
 H  H13  1  0.65218  0.80670  0.57120  1
 H  H14  1  0.67668  0.08288  0.52383  1
 H  H15  1  0.68600  0.58117  0.52737  1
 H  H16  1  0.10739  0.38161  0.45901  1
 O  O1  1  0.08764  0.43200  0.22884  1
 O  O2  1  0.67529  0.68734  0.09480  1
 O  O3  1  0.77447  0.55090  0.78789  1
 O  O4  1  0.69645  0.03252  0.75403  1
 O  O5  1  0.10877  0.77711  0.88802  1
 O  O6  1  0.11554  0.17353  0.88731  1
 O  O7  1  0.00962  0.91354  0.19493  1
 O  O8  1  0.66863  0.29097  0.09553  1
 Pb  Pb1  1  0.63403  0.97546  0.96756  1
 Pb  Pb2  1  0.14988  0.48906  0.01527  1
