CIF file written using JARVIS-Tools package.
data_SmAsSe
_symmetry_space_group_name_H-M  'Pnma'
_cell_length_a       3.97735
_cell_length_b       4.02916
_cell_length_c       17.8091
_cell_angle_alpha    90
_cell_angle_beta     90
_cell_angle_gamma    90

_symmetry_Int_Tables_number  62
_chemical_formula_structural  SmAsSe
_chemical_formula_sum  Sm4As4Se4
_cell_volume  285.3977530966537
_cell_formula_units_Z  4
loop_
  _symmetry_equiv_pos_site_id
 _symmetry_equiv_pos_as_xyz
 1  'x, y, z'
loop_
 _atom_site_type_symbol
 _atom_site_label
 _atom_site_symmetry_multiplicity
 _atom_site_fract_x
 _atom_site_fract_y
 _atom_site_fract_z
 _atom_site_fract_occupancy
 As  As1  1  0.25000  0.70928  0.99794  1
 As  As2  1  0.75000  0.29072  0.00206  1
 As  As3  1  0.25000  0.79072  0.49794  1
 As  As4  1  0.75000  0.20928  0.50206  1
 Se  Se1  1  0.75000  0.73435  0.81243  1
 Se  Se2  1  0.25000  0.26565  0.18757  1
 Se  Se3  1  0.75000  0.76565  0.31243  1
 Se  Se4  1  0.25000  0.23435  0.68757  1
 Sm  Sm1  1  0.75000  0.73196  0.63973  1
 Sm  Sm2  1  0.25000  0.26804  0.36027  1
 Sm  Sm3  1  0.75000  0.76804  0.13973  1
 Sm  Sm4  1  0.25000  0.23196  0.86027  1
