CIF file written using JARVIS-Tools package.
data_H2C3
_symmetry_space_group_name_H-M  'P-1'
_cell_length_a       6.9451
_cell_length_b       8.32704
_cell_length_c       11.7622
_cell_angle_alpha    92.1256
_cell_angle_beta     105.28
_cell_angle_gamma    95.9916

_symmetry_Int_Tables_number  2
_chemical_formula_structural  H2C3
_chemical_formula_sum  H28C42
_cell_volume  651.11961439555
_cell_formula_units_Z  14
loop_
  _symmetry_equiv_pos_site_id
 _symmetry_equiv_pos_as_xyz
 1  'x, y, z'
loop_
 _atom_site_type_symbol
 _atom_site_label
 _atom_site_symmetry_multiplicity
 _atom_site_fract_x
 _atom_site_fract_y
 _atom_site_fract_z
 _atom_site_fract_occupancy
 C  C1  1  0.52805  0.55376  0.05456  1
 C  C2  1  0.89227  0.78755  0.92143  1
 C  C3  1  0.96910  0.58127  0.79555  1
 C  C4  1  0.03090  0.41873  0.20445  1
 C  C5  1  0.84179  0.68753  0.81496  1
 C  C6  1  0.15821  0.31247  0.18504  1
 C  C7  1  0.10773  0.21245  0.07857  1
 C  C8  1  0.07070  0.78024  0.00447  1
 C  C9  1  0.92930  0.21976  0.99553  1
 C  C10  1  0.74758  0.58875  0.46913  1
 C  C11  1  0.84500  0.43412  0.11891  1
 C  C12  1  0.25242  0.41125  0.53087  1
 C  C13  1  0.43702  0.92567  0.67102  1
 C  C14  1  0.11501  0.27235  0.49483  1
 C  C15  1  0.53892  0.19410  0.83664  1
 C  C16  1  0.46108  0.80590  0.16336  1
 C  C17  1  0.41804  0.05651  0.85404  1
 C  C18  1  0.58196  0.94349  0.14596  1
 C  C19  1  0.96159  0.80809  0.42147  1
 C  C20  1  0.03841  0.19191  0.57853  1
 C  C21  1  0.90122  0.75109  0.30308  1
 C  C22  1  0.09878  0.24891  0.69692  1
 C  C23  1  0.76193  0.61280  0.26567  1
 C  C24  1  0.23807  0.38720  0.73433  1
 C  C25  1  0.15500  0.56588  0.88109  1
 C  C26  1  0.38932  0.80612  0.26400  1
 C  C27  1  0.56047  0.06095  0.65397  1
 C  C28  1  0.88499  0.72765  0.50517  1
 C  C29  1  0.56298  0.07433  0.32898  1
 C  C30  1  0.20884  0.67025  0.98852  1
 C  C31  1  0.63367  0.07652  0.22836  1
 C  C32  1  0.36633  0.92348  0.77164  1
 C  C33  1  0.61068  0.19388  0.73600  1
 C  C34  1  0.28974  0.46201  0.85809  1
 C  C35  1  0.79116  0.32975  0.01148  1
 C  C36  1  0.47195  0.44624  0.94544  1
 C  C37  1  0.39804  0.66964  0.06990  1
 C  C38  1  0.60196  0.33036  0.93010  1
 C  C39  1  0.68763  0.53183  0.35048  1
 C  C40  1  0.71026  0.53799  0.14191  1
 C  C41  1  0.31237  0.46817  0.64952  1
 C  C42  1  0.43953  0.93905  0.34603  1
 H  H1  1  0.31211  0.47707  0.46665  1
 H  H2  1  0.68789  0.52293  0.53335  1
 H  H3  1  0.41783  0.57745  0.67754  1
 H  H4  1  0.58217  0.42255  0.32246  1
 H  H5  1  0.93119  0.50764  0.71278  1
 H  H6  1  0.78843  0.87061  0.93574  1
 H  H7  1  0.70238  0.69826  0.74828  1
 H  H8  1  0.93367  0.77239  0.59773  1
 H  H9  1  0.21157  0.12939  0.06426  1
 H  H10  1  0.10916  0.85903  0.08490  1
 H  H11  1  0.89084  0.14097  0.91510  1
 H  H12  1  0.06881  0.49236  0.28722  1
 H  H13  1  0.06633  0.22761  0.40227  1
 H  H14  1  0.06928  0.91628  0.44861  1
 H  H15  1  0.93072  0.08372  0.55139  1
 H  H16  1  0.63833  0.94547  0.06787  1
 H  H17  1  0.27025  0.81860  0.78601  1
 H  H18  1  0.39533  0.82272  0.60579  1
 H  H19  1  0.60467  0.17728  0.39421  1
 H  H20  1  0.72975  0.18140  0.21399  1
 H  H21  1  0.38179  0.93671  0.42348  1
 H  H22  1  0.70547  0.29972  0.72188  1
 H  H23  1  0.29453  0.70028  0.27812  1
 H  H24  1  0.03831  0.18499  0.76142  1
 H  H25  1  0.96169  0.81501  0.23858  1
 H  H26  1  0.61821  0.06329  0.57652  1
 H  H27  1  0.29762  0.30174  0.25172  1
 H  H28  1  0.36167  0.05453  0.93213  1
