CIF file written using JARVIS-Tools package.
data_Nd3In4Ge
_symmetry_space_group_name_H-M  'I4/mcm'
_cell_length_a       8.45746
_cell_length_b       8.45746
_cell_length_c       8.45746
_cell_angle_alpha    119.648
_cell_angle_beta     119.648
_cell_angle_gamma    90.6114

_symmetry_Int_Tables_number  140
_chemical_formula_structural  Nd3In4Ge
_chemical_formula_sum  Nd6In8Ge2
_cell_volume  430.0161414932041
_cell_formula_units_Z  2
loop_
  _symmetry_equiv_pos_site_id
 _symmetry_equiv_pos_as_xyz
 1  'x, y, z'
loop_
 _atom_site_type_symbol
 _atom_site_label
 _atom_site_symmetry_multiplicity
 _atom_site_fract_x
 _atom_site_fract_y
 _atom_site_fract_z
 _atom_site_fract_occupancy
 Ge  Ge1  1  0.50000  0.50000  0.00000  1
 Ge  Ge2  1  0.00000  0.00000  0.00000  1
 In  In1  1  0.32326  0.82326  0.78746  1
 In  In2  1  0.67674  0.17674  0.21254  1
 In  In3  1  0.03580  0.53580  0.21254  1
 In  In4  1  0.82326  0.03580  0.50000  1
 In  In5  1  0.46420  0.67674  0.50000  1
 In  In6  1  0.96420  0.46420  0.78746  1
 In  In7  1  0.17674  0.96420  0.50000  1
 In  In8  1  0.53580  0.32326  0.50000  1
 Nd  Nd1  1  0.75000  0.75000  -0.00000  1
 Nd  Nd2  1  0.25000  0.25000  0.00000  1
 Nd  Nd3  1  0.66324  0.16324  0.82648  1
 Nd  Nd4  1  0.33676  0.83676  0.17352  1
 Nd  Nd5  1  0.16324  0.33676  0.50000  1
 Nd  Nd6  1  0.83676  0.66324  0.50000  1
