CIF file written using JARVIS-Tools package.
data_TaSnO2
_symmetry_space_group_name_H-M  'P4mm'
_cell_length_a       3.06903
_cell_length_b       3.06903
_cell_length_c       6.31524
_cell_angle_alpha    90
_cell_angle_beta     90
_cell_angle_gamma    90

_symmetry_Int_Tables_number  99
_chemical_formula_structural  TaSnO2
_chemical_formula_sum  TaSnO2
_cell_volume  59.4829083686648
_cell_formula_units_Z  1
loop_
  _symmetry_equiv_pos_site_id
 _symmetry_equiv_pos_as_xyz
 1  'x, y, z'
loop_
 _atom_site_type_symbol
 _atom_site_label
 _atom_site_symmetry_multiplicity
 _atom_site_fract_x
 _atom_site_fract_y
 _atom_site_fract_z
 _atom_site_fract_occupancy
 O  O1  1  0.00000  0.00000  0.45604  1
 O  O2  1  0.50000  0.50000  0.18230  1
 Sn  Sn1  1  0.00000  0.00000  0.90126  1
 Ta  Ta1  1  0.50000  0.50000  0.47040  1
