CIF file written using JARVIS-Tools package.
data_MnAg2SnSe4
_symmetry_space_group_name_H-M  'Pmn2_1'
_cell_length_a       7.04829
_cell_length_b       7.45037
_cell_length_c       8.29928
_cell_angle_alpha    90
_cell_angle_beta     90
_cell_angle_gamma    90

_symmetry_Int_Tables_number  31
_chemical_formula_structural  MnAg2SnSe4
_chemical_formula_sum  Mn2Ag4Sn2Se8
_cell_volume  435.81443364331966
_cell_formula_units_Z  2
loop_
  _symmetry_equiv_pos_site_id
 _symmetry_equiv_pos_as_xyz
 1  'x, y, z'
loop_
 _atom_site_type_symbol
 _atom_site_label
 _atom_site_symmetry_multiplicity
 _atom_site_fract_x
 _atom_site_fract_y
 _atom_site_fract_z
 _atom_site_fract_occupancy
 Ag  Ag1  1  0.52064  0.82077  0.25317  1
 Ag  Ag2  1  0.02064  0.17923  0.24683  1
 Ag  Ag3  1  0.02064  0.17923  0.75317  1
 Ag  Ag4  1  0.52064  0.82077  0.74683  1
 Mn  Mn1  1  0.49737  0.33996  0.00000  1
 Mn  Mn2  1  -0.00263  0.66004  0.50000  1
 Se  Se1  1  0.85377  0.34380  0.00000  1
 Se  Se2  1  0.35377  0.65620  0.50000  1
 Se  Se3  1  0.89296  0.83929  0.25694  1
 Se  Se4  1  0.39296  0.16071  0.24306  1
 Se  Se5  1  0.39296  0.16071  0.75694  1
 Se  Se6  1  0.89296  0.83929  0.74306  1
 Se  Se7  1  0.37229  0.65269  0.00000  1
 Se  Se8  1  0.87229  0.34731  0.50000  1
 Sn  Sn1  1  0.00186  0.66319  0.00000  1
 Sn  Sn2  1  0.50186  0.33681  0.50000  1
