CIF file written using JARVIS-Tools package.
data_CdH12C8O4
_symmetry_space_group_name_H-M  'P1'
_cell_length_a       4.14265
_cell_length_b       4.58903
_cell_length_c       11.7063
_cell_angle_alpha    82.422
_cell_angle_beta     90.0687
_cell_angle_gamma    73.1378

_symmetry_Int_Tables_number  1
_chemical_formula_structural  CdH12C8O4
_chemical_formula_sum  CdH2C8O4
_cell_volume  210.93430723099974
_cell_formula_units_Z  1
loop_
  _symmetry_equiv_pos_site_id
 _symmetry_equiv_pos_as_xyz
 1  'x, y, z'
loop_
 _atom_site_type_symbol
 _atom_site_label
 _atom_site_symmetry_multiplicity
 _atom_site_fract_x
 _atom_site_fract_y
 _atom_site_fract_z
 _atom_site_fract_occupancy
 C  C1  1  0.21409  0.60092  0.62674  1
 C  C2  1  0.53072  0.31271  0.34012  1
 C  C3  1  0.30579  0.35483  0.44250  1
 C  C4  1  0.47061  0.47036  0.53878  1
 C  C5  1  0.36075  0.70894  0.72825  1
 C  C6  1  0.54270  0.44639  0.82204  1
 C  C7  1  0.66969  0.56647  0.92369  1
 C  C8  1  0.83447  0.32045  0.02295  1
 Cd  Cd1  1  0.94706  0.78449  0.19230  1
 H  H1  1  0.06471  0.52821  0.41526  1
 H  H2  1  0.01449  0.79418  0.58008  1
 H  H3  1  0.36988  0.31343  0.85283  1
 H  H4  1  0.75577  0.28373  0.78612  1
 H  H5  1  0.57729  0.65169  0.49975  1
 H  H6  1  0.09028  0.42734  0.66098  1
 H  H7  1  0.15350  0.86831  0.76819  1
 H  H8  1  0.53146  0.84422  0.69664  1
 H  H9  1  0.45571  0.72892  0.95962  1
 H  H10  1  0.84296  0.70062  0.89671  1
 H  H11  1  0.68218  0.28082  0.58087  1
 H  H12  1  0.25513  0.13754  0.47447  1
 O  O1  1  0.49187  0.54825  0.26123  1
 O  O2  1  0.76165  0.06732  0.02723  1
 O  O3  1  0.75516  0.05735  0.34018  1
 O  O4  1  0.03279  0.36092  0.09885  1
