CIF file written using JARVIS-Tools package.
data_NdGaCo4
_symmetry_space_group_name_H-M  'P6/mmm'
_cell_length_a       8.68596
_cell_length_b       8.68596
_cell_length_c       3.999
_cell_angle_alpha    90
_cell_angle_beta     90
_cell_angle_gamma    120

_symmetry_Int_Tables_number  191
_chemical_formula_structural  NdGaCo4
_chemical_formula_sum  Nd3Ga3Co2
_cell_volume  261.2867909823584
_cell_formula_units_Z  3
loop_
  _symmetry_equiv_pos_site_id
 _symmetry_equiv_pos_as_xyz
 1  'x, y, z'
loop_
 _atom_site_type_symbol
 _atom_site_label
 _atom_site_symmetry_multiplicity
 _atom_site_fract_x
 _atom_site_fract_y
 _atom_site_fract_z
 _atom_site_fract_occupancy
 Co  Co1  1  0.67718  -0.00000  0.00000  1
 Co  Co2  1  0.16171  0.32341  0.50000  1
 Co  Co3  1  0.83829  0.67659  0.50000  1
 Co  Co4  1  0.67718  0.67718  0.00000  1
 Co  Co5  1  0.32341  0.16171  0.50000  1
 Co  Co6  1  0.67659  0.83829  0.50000  1
 Co  Co7  1  0.83829  0.16171  0.50000  1
 Co  Co8  1  0.32282  0.00000  0.00000  1
 Co  Co9  1  0.32282  0.32282  0.00000  1
 Co  Co10  1  0.00000  0.32282  0.00000  1
 Co  Co11  1  -0.00000  0.67718  0.00000  1
 Co  Co12  1  0.16171  0.83829  0.50000  1
 Ga  Ga1  1  0.50000  0.50000  0.50000  1
 Ga  Ga2  1  -0.00000  0.50000  0.50000  1
 Ga  Ga3  1  0.50000  0.00000  0.50000  1
 Nd  Nd1  1  0.00000  0.00000  0.00000  1
 Nd  Nd2  1  0.66667  0.33333  0.00000  1
 Nd  Nd3  1  0.33333  0.66667  0.00000  1
