CIF file written using JARVIS-Tools package.
data_La3TaCl6O4
_symmetry_space_group_name_H-M  'P6_3/m'
_cell_length_a       12.8785
_cell_length_b       12.8785
_cell_length_c       4.0101
_cell_angle_alpha    90
_cell_angle_beta     90
_cell_angle_gamma    120

_symmetry_Int_Tables_number  176
_chemical_formula_structural  La3TaCl6O4
_chemical_formula_sum  La6Ta2Cl2O8
_cell_volume  575.990312940701
_cell_formula_units_Z  2
loop_
  _symmetry_equiv_pos_site_id
 _symmetry_equiv_pos_as_xyz
 1  'x, y, z'
loop_
 _atom_site_type_symbol
 _atom_site_label
 _atom_site_symmetry_multiplicity
 _atom_site_fract_x
 _atom_site_fract_y
 _atom_site_fract_z
 _atom_site_fract_occupancy
 Cl  Cl1  1  0.24571  0.14414  0.25000  1
 Cl  Cl2  1  0.07229  0.44576  0.25000  1
 Cl  Cl3  1  0.92771  0.55424  0.75000  1
 Cl  Cl4  1  0.55424  0.62653  0.25000  1
 Cl  Cl5  1  0.44576  0.37347  0.75000  1
 Cl  Cl6  1  0.37347  0.92771  0.25000  1
 Cl  Cl7  1  0.62653  0.07229  0.75000  1
 Cl  Cl8  1  0.75429  0.85586  0.75000  1
 Cl  Cl9  1  0.10157  0.24571  0.75000  1
 Cl  Cl10  1  0.89843  0.75429  0.25000  1
 Cl  Cl11  1  0.14414  0.89843  0.75000  1
 Cl  Cl12  1  0.85586  0.10157  0.25000  1
 La  La1  1  0.28144  0.39601  0.25000  1
 La  La2  1  0.88543  0.28144  0.75000  1
 La  La3  1  0.11457  0.71856  0.25000  1
 La  La4  1  0.39601  0.11457  0.75000  1
 La  La5  1  0.60399  0.88543  0.25000  1
 La  La6  1  0.71856  0.60399  0.75000  1
 O  O1  1  0.33333  0.66667  0.25000  1
 O  O2  1  0.50768  0.20048  0.25000  1
 O  O3  1  0.49232  0.79952  0.75000  1
 O  O4  1  0.79952  0.30720  0.25000  1
 O  O5  1  0.20048  0.69280  0.75000  1
 O  O6  1  0.69280  0.49232  0.25000  1
 O  O7  1  0.30720  0.50768  0.75000  1
 O  O8  1  0.66667  0.33333  0.75000  1
 Ta  Ta1  1  0.66667  0.33333  0.25000  1
 Ta  Ta2  1  0.33333  0.66667  0.75000  1
