CIF file written using JARVIS-Tools package.
data_CdH16C10O4
_symmetry_space_group_name_H-M  'P1'
_cell_length_a       3.86221
_cell_length_b       4.39496
_cell_length_c       15.0421
_cell_angle_alpha    97.3989
_cell_angle_beta     94.3283
_cell_angle_gamma    96.5234

_symmetry_Int_Tables_number  1
_chemical_formula_structural  CdH16C10O4
_chemical_formula_sum  CdH6C0O4
_cell_volume  250.50860881586254
_cell_formula_units_Z  1
loop_
  _symmetry_equiv_pos_site_id
 _symmetry_equiv_pos_as_xyz
 1  'x, y, z'
loop_
 _atom_site_type_symbol
 _atom_site_label
 _atom_site_symmetry_multiplicity
 _atom_site_fract_x
 _atom_site_fract_y
 _atom_site_fract_z
 _atom_site_fract_occupancy
 C  C1  1  0.45369  0.21740  0.62050  1
 C  C2  1  0.92853  0.95064  0.29236  1
 C  C3  1  0.08230  0.84637  0.37697  1
 C  C4  1  0.31880  0.96925  0.54070  1
 C  C5  1  0.18691  0.10096  0.45686  1
 C  C6  1  0.57929  0.08429  0.70467  1
 C  C7  1  0.73048  0.33251  0.78309  1
 C  C8  1  0.85168  0.20085  0.86792  1
 C  C9  1  0.02204  0.45510  0.94264  1
 C  C10  1  0.16193  0.33728  0.02656  1
 Cd  Cd1  1  0.50641  0.00878  0.14502  1
 H  H1  1  0.10712  0.80831  0.56071  1
 H  H2  1  0.30263  0.71989  0.36005  1
 H  H3  1  0.87828  0.67187  0.39408  1
 H  H4  1  0.77852  0.93085  0.68761  1
 H  H5  1  0.52936  0.82789  0.52387  1
 H  H6  1  0.23859  0.59848  0.91875  1
 H  H7  1  0.83432  0.61385  0.96338  1
 H  H8  1  0.95284  0.47705  0.76146  1
 H  H9  1  0.36003  0.93545  0.72613  1
 H  H10  1  0.67012  0.37350  0.60066  1
 H  H11  1  0.53477  0.49037  0.79923  1
 H  H12  1  0.39279  0.26914  0.43825  1
 H  H13  1  0.96260  0.22682  0.47130  1
 H  H14  1  0.03735  0.03441  0.85095  1
 H  H15  1  0.62844  0.06812  0.89283  1
 H  H16  1  0.24690  0.36357  0.63666  1
 O  O1  1  0.71518  0.15104  0.29665  1
 O  O2  1  0.42966  0.48540  0.07547  1
 O  O3  1  0.99490  0.81452  0.21515  1
 O  O4  1  0.02397  0.07838  0.04617  1
