CIF file written using JARVIS-Tools package.
data_La3HfGa5O14
_symmetry_space_group_name_H-M  'P321'
_cell_length_a       8.32716
_cell_length_b       8.32716
_cell_length_c       5.19324
_cell_angle_alpha    90
_cell_angle_beta     90
_cell_angle_gamma    120

_symmetry_Int_Tables_number  150
_chemical_formula_structural  La3HfGa5O14
_chemical_formula_sum  La3HfGa5O4
_cell_volume  311.8627213974768
_cell_formula_units_Z  1
loop_
  _symmetry_equiv_pos_site_id
 _symmetry_equiv_pos_as_xyz
 1  'x, y, z'
loop_
 _atom_site_type_symbol
 _atom_site_label
 _atom_site_symmetry_multiplicity
 _atom_site_fract_x
 _atom_site_fract_y
 _atom_site_fract_z
 _atom_site_fract_occupancy
 Ga  Ga1  1  0.33333  0.66667  0.53054  1
 Ga  Ga2  1  0.66667  0.33333  0.46946  1
 Ga  Ga3  1  0.24528  -0.00000  0.50000  1
 Ga  Ga4  1  -0.00000  0.24528  0.50000  1
 Ga  Ga5  1  0.75472  0.75472  0.50000  1
 Hf  Hf1  1  0.00000  0.00000  0.00000  1
 La  La1  1  0.57353  0.00000  0.00000  1
 La  La2  1  0.00000  0.57353  0.00000  1
 La  La3  1  0.42647  0.42647  0.00000  1
 O  O1  1  0.14698  0.22767  0.24215  1
 O  O2  1  0.77233  0.91931  0.24215  1
 O  O3  1  0.31227  0.85392  0.70052  1
 O  O4  1  0.08069  0.85302  0.24215  1
 O  O5  1  0.91931  0.77233  0.75785  1
 O  O6  1  0.22767  0.14698  0.75785  1
 O  O7  1  0.85392  0.31227  0.29948  1
 O  O8  1  0.66667  0.33333  0.82062  1
 O  O9  1  0.45835  0.14608  0.29948  1
 O  O10  1  0.85302  0.08069  0.75785  1
 O  O11  1  0.14608  0.45835  0.70052  1
 O  O12  1  0.68773  0.54165  0.29948  1
 O  O13  1  0.33333  0.66667  0.17938  1
 O  O14  1  0.54165  0.68773  0.70052  1
