CIF file written using JARVIS-Tools package.
data_SnTeO
_symmetry_space_group_name_H-M  'Pm'
_cell_length_a       3.4691
_cell_length_b       7.20398
_cell_length_c       3.06687
_cell_angle_alpha    90
_cell_angle_beta     90
_cell_angle_gamma    117.065

_symmetry_Int_Tables_number  6
_chemical_formula_structural  SnTeO
_chemical_formula_sum  SnTeO
_cell_volume  68.25163274727504
_cell_formula_units_Z  1
loop_
  _symmetry_equiv_pos_site_id
 _symmetry_equiv_pos_as_xyz
 1  'x, y, z'
loop_
 _atom_site_type_symbol
 _atom_site_label
 _atom_site_symmetry_multiplicity
 _atom_site_fract_x
 _atom_site_fract_y
 _atom_site_fract_z
 _atom_site_fract_occupancy
 O  O1  1  0.24800  0.03958  0.00000  1
 Sn  Sn1  1  -0.05088  0.24939  0.00000  1
 Te  Te1  1  0.80288  0.71102  0.00000  1
