CIF file written using JARVIS-Tools package.
data_CdH14C9O4
_symmetry_space_group_name_H-M  'P1'
_cell_length_a       4.04153
_cell_length_b       4.3512
_cell_length_c       13.095
_cell_angle_alpha    86.1223
_cell_angle_beta     84.6472
_cell_angle_gamma    76.2573

_symmetry_Int_Tables_number  1
_chemical_formula_structural  CdH14C9O4
_chemical_formula_sum  CdH4C9O4
_cell_volume  222.46885756434267
_cell_formula_units_Z  1
loop_
  _symmetry_equiv_pos_site_id
 _symmetry_equiv_pos_as_xyz
 1  'x, y, z'
loop_
 _atom_site_type_symbol
 _atom_site_label
 _atom_site_symmetry_multiplicity
 _atom_site_fract_x
 _atom_site_fract_y
 _atom_site_fract_z
 _atom_site_fract_occupancy
 C  C1  1  0.63297  0.53563  0.33740  1
 C  C2  1  0.67534  0.74301  0.68168  1
 C  C3  1  0.56522  0.61968  0.58856  1
 C  C4  1  0.75046  0.29773  0.42597  1
 C  C5  1  0.85999  0.43716  0.51829  1
 C  C6  1  0.56054  0.37132  0.24506  1
 C  C7  1  0.46137  0.58946  0.15059  1
 C  C8  1  0.41501  0.39460  0.06223  1
 C  C9  1  0.32509  0.57097  0.96101  1
 Cd  Cd1  1  0.96036  0.09352  0.81389  1
 H  H1  1  0.01144  0.24483  0.56527  1
 H  H2  1  0.40394  0.81987  0.54762  1
 H  H3  1  0.40227  0.46103  0.61905  1
 H  H4  1  0.35802  0.24375  0.26826  1
 H  H5  1  0.64556  0.20640  0.04665  1
 H  H6  1  0.20775  0.27197  0.08450  1
 H  H7  1  0.03093  0.59138  0.48971  1
 H  H8  1  0.97011  0.11601  0.39530  1
 H  H9  1  0.83244  0.66624  0.31393  1
 H  H10  1  0.40314  0.71511  0.36287  1
 H  H11  1  0.66168  0.71829  0.12677  1
 H  H12  1  0.22470  0.76937  0.16913  1
 H  H13  1  0.54893  0.17173  0.45117  1
 H  H14  1  0.79033  0.18631  0.22293  1
 O  O1  1  0.51064  0.01331  0.71454  1
 O  O2  1  0.11034  0.84150  0.96304  1
 O  O3  1  0.93634  0.58821  0.72593  1
 O  O4  1  0.45005  0.43858  0.87784  1
