CIF file written using JARVIS-Tools package.
data_La5Ge3O
_symmetry_space_group_name_H-M  'P6_3/mcm'
_cell_length_a       8.98975
_cell_length_b       8.98975
_cell_length_c       6.69527
_cell_angle_alpha    90
_cell_angle_beta     90
_cell_angle_gamma    120

_symmetry_Int_Tables_number  193
_chemical_formula_structural  La5Ge3O
_chemical_formula_sum  La0Ge6O2
_cell_volume  468.59030344936065
_cell_formula_units_Z  2
loop_
  _symmetry_equiv_pos_site_id
 _symmetry_equiv_pos_as_xyz
 1  'x, y, z'
loop_
 _atom_site_type_symbol
 _atom_site_label
 _atom_site_symmetry_multiplicity
 _atom_site_fract_x
 _atom_site_fract_y
 _atom_site_fract_z
 _atom_site_fract_occupancy
 Ge  Ge1  1  0.60202  0.60202  0.25000  1
 Ge  Ge2  1  0.39798  0.39798  0.75000  1
 Ge  Ge3  1  -0.00000  0.39798  0.25000  1
 Ge  Ge4  1  0.00000  0.60202  0.75000  1
 Ge  Ge5  1  0.39798  -0.00000  0.25000  1
 Ge  Ge6  1  0.60202  0.00000  0.75000  1
 La  La1  1  0.22947  -0.00000  0.75000  1
 La  La2  1  0.77053  0.77053  0.75000  1
 La  La3  1  0.77053  0.00000  0.25000  1
 La  La4  1  -0.00000  0.22947  0.75000  1
 La  La5  1  0.00000  0.77053  0.25000  1
 La  La6  1  0.66667  0.33333  0.00000  1
 La  La7  1  0.22947  0.22947  0.25000  1
 La  La8  1  0.33333  0.66667  0.50000  1
 La  La9  1  0.66667  0.33333  0.50000  1
 La  La10  1  0.33333  0.66667  0.00000  1
 O  O1  1  0.00000  0.00000  0.50000  1
 O  O2  1  0.00000  0.00000  0.00000  1
