CIF file written using JARVIS-Tools package.
data_Ho4MgRh
_symmetry_space_group_name_H-M  'F-43m'
_cell_length_a       9.58069
_cell_length_b       9.58069
_cell_length_c       9.58068
_cell_angle_alpha    60
_cell_angle_beta     60
_cell_angle_gamma    60

_symmetry_Int_Tables_number  216
_chemical_formula_structural  Ho4MgRh
_chemical_formula_sum  Ho6Mg4Rh4
_cell_volume  621.8341543104275
_cell_formula_units_Z  4
loop_
  _symmetry_equiv_pos_site_id
 _symmetry_equiv_pos_as_xyz
 1  'x, y, z'
loop_
 _atom_site_type_symbol
 _atom_site_label
 _atom_site_symmetry_multiplicity
 _atom_site_fract_x
 _atom_site_fract_y
 _atom_site_fract_z
 _atom_site_fract_occupancy
 Ho  Ho1  1  0.81244  0.18756  0.18756  1
 Ho  Ho2  1  0.56531  0.93469  0.93469  1
 Ho  Ho3  1  0.18756  0.81244  0.81244  1
 Ho  Ho4  1  0.18756  0.81244  0.18756  1
 Ho  Ho5  1  0.81244  0.18756  0.81244  1
 Ho  Ho6  1  0.81244  0.81244  0.18756  1
 Ho  Ho7  1  0.93469  0.56531  0.56531  1
 Ho  Ho8  1  0.93469  0.93469  0.56531  1
 Ho  Ho9  1  0.18756  0.18756  0.81244  1
 Ho  Ho10  1  0.93469  0.56531  0.93469  1
 Ho  Ho11  1  0.56531  0.56531  0.93469  1
 Ho  Ho12  1  0.34714  0.34714  0.34714  1
 Ho  Ho13  1  0.34714  0.34714  0.95857  1
 Ho  Ho14  1  0.34714  0.95857  0.34714  1
 Ho  Ho15  1  0.95857  0.34714  0.34714  1
 Ho  Ho16  1  0.56531  0.93469  0.56531  1
 Mg  Mg1  1  0.57989  0.57989  0.57989  1
 Mg  Mg2  1  0.57989  0.57989  0.26034  1
 Mg  Mg3  1  0.57989  0.26034  0.57989  1
 Mg  Mg4  1  0.26034  0.57989  0.57989  1
 Rh  Rh1  1  0.14184  0.14184  0.57449  1
 Rh  Rh2  1  0.14184  0.57449  0.14184  1
 Rh  Rh3  1  0.14184  0.14184  0.14184  1
 Rh  Rh4  1  0.57449  0.14184  0.14184  1
