CIF file written using JARVIS-Tools package.
data_Ho3B7Mo
_symmetry_space_group_name_H-M  'Cmcm'
_cell_length_a       8.1297
_cell_length_b       8.12971
_cell_length_c       9.42972
_cell_angle_alpha    90
_cell_angle_beta     90
_cell_angle_gamma    155.351

_symmetry_Int_Tables_number  63
_chemical_formula_structural  Ho3B7Mo
_chemical_formula_sum  Ho6B4Mo2
_cell_volume  259.92788795995784
_cell_formula_units_Z  2
loop_
  _symmetry_equiv_pos_site_id
 _symmetry_equiv_pos_as_xyz
 1  'x, y, z'
loop_
 _atom_site_type_symbol
 _atom_site_label
 _atom_site_symmetry_multiplicity
 _atom_site_fract_x
 _atom_site_fract_y
 _atom_site_fract_z
 _atom_site_fract_occupancy
 B  B1  1  0.13493  0.86507  0.85291  1
 B  B2  1  0.22735  0.77265  0.53337  1
 B  B3  1  0.98050  0.01950  0.09186  1
 B  B4  1  0.01950  0.98050  0.90814  1
 B  B5  1  0.01950  0.98050  0.59186  1
 B  B6  1  0.98050  0.01950  0.40814  1
 B  B7  1  0.95531  0.04469  0.75000  1
 B  B8  1  0.04469  0.95531  0.25000  1
 B  B9  1  0.86507  0.13493  0.35291  1
 B  B10  1  0.13493  0.86507  0.64709  1
 B  B11  1  0.22735  0.77265  0.96663  1
 B  B12  1  0.86507  0.13493  0.14709  1
 B  B13  1  0.77265  0.22735  0.46663  1
 B  B14  1  0.77265  0.22735  0.03337  1
 Ho  Ho1  1  0.25590  0.74410  0.25000  1
 Ho  Ho2  1  0.60669  0.39331  0.43951  1
 Ho  Ho3  1  0.39331  0.60669  0.56049  1
 Ho  Ho4  1  0.39331  0.60669  0.93951  1
 Ho  Ho5  1  0.60669  0.39331  0.06049  1
 Ho  Ho6  1  0.74410  0.25590  0.75000  1
 Mo  Mo1  1  0.44642  0.55358  0.25000  1
 Mo  Mo2  1  0.55358  0.44642  0.75000  1
