CIF file written using JARVIS-Tools package.
data_CdH18C11O4
_symmetry_space_group_name_H-M  'P1'
_cell_length_a       4.0273
_cell_length_b       4.37069
_cell_length_c       15.5666
_cell_angle_alpha    89.9907
_cell_angle_beta     82.7517
_cell_angle_gamma    76.3883

_symmetry_Int_Tables_number  1
_chemical_formula_structural  CdH18C11O4
_chemical_formula_sum  CdH8CO4
_cell_volume  264.05662530453833
_cell_formula_units_Z  1
loop_
  _symmetry_equiv_pos_site_id
 _symmetry_equiv_pos_as_xyz
 1  'x, y, z'
loop_
 _atom_site_type_symbol
 _atom_site_label
 _atom_site_symmetry_multiplicity
 _atom_site_fract_x
 _atom_site_fract_y
 _atom_site_fract_z
 _atom_site_fract_occupancy
 C  C1  1  0.77468  0.53177  0.35881  1
 C  C2  1  0.34536  0.15330  0.72771  1
 C  C3  1  0.52216  0.28057  0.64919  1
 C  C4  1  0.45317  0.60702  0.51158  1
 C  C5  1  0.63366  0.37086  0.43785  1
 C  C6  1  0.27691  0.46609  0.58978  1
 C  C7  1  0.94303  0.30919  0.28138  1
 C  C8  1  0.06928  0.48458  0.20359  1
 C  C9  1  0.23300  0.27669  0.12297  1
 C  C10  1  0.33527  0.47874  0.04863  1
 C  C11  1  0.49926  0.31138  0.96302  1
 Cd  Cd1  1  0.96733  0.79404  0.83923  1
 H  H1  1  0.09326  0.65622  0.62921  1
 H  H2  1  0.66464  0.43671  0.67501  1
 H  H3  1  0.56176  0.71400  0.33822  1
 H  H4  1  0.71202  0.08319  0.61468  1
 H  H5  1  0.84499  0.19247  0.46028  1
 H  H6  1  0.84971  0.66783  0.18645  1
 H  H7  1  0.25524  0.61289  0.22267  1
 H  H8  1  0.11190  0.66362  0.03574  1
 H  H9  1  0.52402  0.60439  0.06742  1
 H  H10  1  0.46033  0.09855  0.13762  1
 H  H11  1  0.25525  0.78783  0.48500  1
 H  H12  1  0.44990  0.24050  0.41868  1
 H  H13  1  0.96128  0.65966  0.37762  1
 H  H14  1  0.75745  0.18014  0.26261  1
 H  H15  1  0.16072  0.12874  0.30047  1
 H  H16  1  0.04988  0.14748  0.10314  1
 H  H17  1  0.12422  0.31455  0.56584  1
 H  H18  1  0.63745  0.73239  0.53257  1
 O  O1  1  0.05411  0.30610  0.76537  1
 O  O2  1  0.48567  0.88142  0.75501  1
 O  O3  1  0.71054  0.04096  0.96443  1
 O  O4  1  0.43676  0.45151  0.89312  1
