CIF file written using JARVIS-Tools package.
data_VZnO4
_symmetry_space_group_name_H-M  'Cmmm'
_cell_length_a       4.68085
_cell_length_b       4.68085
_cell_length_c       2.89032
_cell_angle_alpha    90
_cell_angle_beta     90
_cell_angle_gamma    93.6823

_symmetry_Int_Tables_number  65
_chemical_formula_structural  VZnO4
_chemical_formula_sum  VZnO4
_cell_volume  63.19704758159406
_cell_formula_units_Z  1
loop_
  _symmetry_equiv_pos_site_id
 _symmetry_equiv_pos_as_xyz
 1  'x, y, z'
loop_
 _atom_site_type_symbol
 _atom_site_label
 _atom_site_symmetry_multiplicity
 _atom_site_fract_x
 _atom_site_fract_y
 _atom_site_fract_z
 _atom_site_fract_occupancy
 O  O1  1  0.21048  0.21048  0.50000  1
 O  O2  1  0.68066  0.31935  0.00000  1
 O  O3  1  0.31935  0.68066  0.00000  1
 O  O4  1  0.78952  0.78952  0.50000  1
 V  V1  1  0.50000  0.50000  0.50000  1
 Zn  Zn1  1  0.00000  0.00000  0.00000  1
