CIF file written using JARVIS-Tools package.
data_Dy4MgNi
_symmetry_space_group_name_H-M  'F-43m'
_cell_length_a       9.52563
_cell_length_b       9.52564
_cell_length_c       9.52564
_cell_angle_alpha    60
_cell_angle_beta     60
_cell_angle_gamma    60

_symmetry_Int_Tables_number  216
_chemical_formula_structural  Dy4MgNi
_chemical_formula_sum  Dy6Mg4Ni4
_cell_volume  611.1773868717192
_cell_formula_units_Z  4
loop_
  _symmetry_equiv_pos_site_id
 _symmetry_equiv_pos_as_xyz
 1  'x, y, z'
loop_
 _atom_site_type_symbol
 _atom_site_label
 _atom_site_symmetry_multiplicity
 _atom_site_fract_x
 _atom_site_fract_y
 _atom_site_fract_z
 _atom_site_fract_occupancy
 Dy  Dy1  1  0.34605  0.34605  0.34605  1
 Dy  Dy2  1  0.81252  0.18748  0.81252  1
 Dy  Dy3  1  0.34605  0.34605  0.96186  1
 Dy  Dy4  1  0.34605  0.96186  0.34605  1
 Dy  Dy5  1  0.96186  0.34605  0.34605  1
 Dy  Dy6  1  0.18748  0.81252  0.81252  1
 Dy  Dy7  1  0.18748  0.81252  0.18748  1
 Dy  Dy8  1  0.56569  0.93431  0.93431  1
 Dy  Dy9  1  0.81252  0.18748  0.18748  1
 Dy  Dy10  1  0.81252  0.81252  0.18748  1
 Dy  Dy11  1  0.93431  0.56569  0.56569  1
 Dy  Dy12  1  0.56569  0.93431  0.56569  1
 Dy  Dy13  1  0.93431  0.56569  0.93431  1
 Dy  Dy14  1  0.56569  0.56569  0.93431  1
 Dy  Dy15  1  0.93431  0.93431  0.56569  1
 Dy  Dy16  1  0.18748  0.18748  0.81252  1
 Mg  Mg1  1  0.57962  0.57962  0.57962  1
 Mg  Mg2  1  0.57962  0.57962  0.26113  1
 Mg  Mg3  1  0.57962  0.26113  0.57962  1
 Mg  Mg4  1  0.26113  0.57962  0.57962  1
 Ni  Ni1  1  0.14200  0.14200  0.57399  1
 Ni  Ni2  1  0.14200  0.57399  0.14200  1
 Ni  Ni3  1  0.14200  0.14200  0.14200  1
 Ni  Ni4  1  0.57399  0.14200  0.14200  1
