CIF file written using JARVIS-Tools package.
data_SnH4C2Cl2
_symmetry_space_group_name_H-M  'P-1'
_cell_length_a       4.38478
_cell_length_b       6.82137
_cell_length_c       9.68421
_cell_angle_alpha    100.376
_cell_angle_beta     97.5153
_cell_angle_gamma    108.639

_symmetry_Int_Tables_number  2
_chemical_formula_structural  SnH4C2Cl2
_chemical_formula_sum  Sn2H8C4Cl4
_cell_volume  264.4061804328063
_cell_formula_units_Z  2
loop_
  _symmetry_equiv_pos_site_id
 _symmetry_equiv_pos_as_xyz
 1  'x, y, z'
loop_
 _atom_site_type_symbol
 _atom_site_label
 _atom_site_symmetry_multiplicity
 _atom_site_fract_x
 _atom_site_fract_y
 _atom_site_fract_z
 _atom_site_fract_occupancy
 C  C1  1  0.78155  0.95384  0.94238  1
 C  C2  1  0.12373  0.07205  0.02507  1
 C  C3  1  0.52245  0.63137  0.49877  1
 C  C4  1  0.38283  0.39458  0.46867  1
 Cl  Cl1  1  0.04093  0.53118  0.78061  1
 Cl  Cl2  1  0.64479  0.98668  0.29324  1
 Cl  Cl3  1  0.86435  0.49476  0.18682  1
 Cl  Cl4  1  0.26053  0.03928  0.67421  1
 H  H1  1  0.18185  0.33330  0.52347  1
 H  H2  1  0.63886  0.82673  -0.01210  1
 H  H3  1  0.72342  0.69265  0.44396  1
 H  H4  1  0.34081  0.70745  0.47980  1
 H  H5  1  0.64517  0.05711  0.91988  1
 H  H6  1  0.26009  0.96879  0.04759  1
 H  H7  1  0.56446  0.31850  0.48765  1
 H  H8  1  0.26643  0.19915  0.97954  1
 Sn  Sn1  1  0.13454  0.24296  0.24292  1
 Sn  Sn2  1  0.77077  0.78299  0.72451  1
