CIF file written using JARVIS-Tools package.
data_SnH4C2F2
_symmetry_space_group_name_H-M  'P-1'
_cell_length_a       4.75898
_cell_length_b       6.21544
_cell_length_c       6.54086
_cell_angle_alpha    68.9741
_cell_angle_beta     69.751
_cell_angle_gamma    77.4872

_symmetry_Int_Tables_number  2
_chemical_formula_structural  SnH4C2F2
_chemical_formula_sum  Sn2H8C4F4
_cell_volume  168.48281327749956
_cell_formula_units_Z  2
loop_
  _symmetry_equiv_pos_site_id
 _symmetry_equiv_pos_as_xyz
 1  'x, y, z'
loop_
 _atom_site_type_symbol
 _atom_site_label
 _atom_site_symmetry_multiplicity
 _atom_site_fract_x
 _atom_site_fract_y
 _atom_site_fract_z
 _atom_site_fract_occupancy
 C  C1  1  0.96863  0.20708  0.13015  1
 C  C2  1  0.66643  0.28656  0.27100  1
 C  C3  1  0.15555  0.79211  0.70522  1
 C  C4  1  0.47950  0.70151  0.69593  1
 F  F1  1  0.06146  0.34052  0.60731  1
 F  F2  1  0.57361  0.15303  0.79387  1
 F  F3  1  0.56199  0.83188  0.18579  1
 F  F4  1  0.07320  0.66170  0.21540  1
 H  H1  1  0.51932  0.40259  0.17088  1
 H  H2  1  0.09544  0.34795  0.00112  1
 H  H3  1  0.53963  0.14569  0.40005  1
 H  H4  1  0.13195  0.90687  0.53887  1
 H  H5  1  0.50308  0.58673  0.86228  1
 H  H6  1  0.62227  0.84133  0.63459  1
 H  H7  1  0.01276  0.65229  0.76659  1
 H  H8  1  0.11572  0.09105  0.23028  1
 Sn  Sn1  1  0.93679  -0.00270  0.93793  1
 Sn  Sn2  1  0.69833  0.49639  0.46316  1
