CIF file written using JARVIS-Tools package.
data_CdH20C12O4
_symmetry_space_group_name_H-M  'P1'
_cell_length_a       3.9781
_cell_length_b       4.55263
_cell_length_c       16.9067
_cell_angle_alpha    82.9655
_cell_angle_beta     79.2892
_cell_angle_gamma    72.7244

_symmetry_Int_Tables_number  1
_chemical_formula_structural  CdH20C12O4
_chemical_formula_sum  CdH20C2O4
_cell_volume  286.5472133455315
_cell_formula_units_Z  1
loop_
  _symmetry_equiv_pos_site_id
 _symmetry_equiv_pos_as_xyz
 1  'x, y, z'
loop_
 _atom_site_type_symbol
 _atom_site_label
 _atom_site_symmetry_multiplicity
 _atom_site_fract_x
 _atom_site_fract_y
 _atom_site_fract_z
 _atom_site_fract_occupancy
 C  C1  1  0.42981  0.94588  0.38048  1
 C  C2  1  0.71988  0.73496  0.74941  1
 C  C3  1  0.62999  0.90964  0.67022  1
 C  C4  1  0.54197  0.91978  0.52575  1
 C  C5  1  0.54056  0.73942  0.45526  1
 C  C6  1  0.63392  0.71601  0.60218  1
 C  C7  1  0.43084  0.76080  0.31055  1
 C  C8  1  0.25071  0.94832  0.24031  1
 C  C9  1  0.46293  0.12727  0.17850  1
 C  C10  1  0.25549  0.29170  0.11032  1
 C  C11  1  0.47021  0.45914  0.04462  1
 C  C12  1  0.28347  0.56955  0.97158  1
 Cd  Cd1  1  -0.02307  0.15460  0.86182  1
 H  H1  1  0.27746  0.08749  0.53983  1
 H  H2  1  0.37172  0.08405  0.68297  1
 H  H3  1  0.15872  0.10026  0.39685  1
 H  H4  1  0.82490  0.04414  0.65173  1
 H  H5  1  0.17511  0.78972  0.20745  1
 H  H6  1  0.73200  0.05857  0.50719  1
 H  H7  1  0.89804  0.54861  0.58900  1
 H  H8  1  0.72881  0.29539  0.02573  1
 H  H9  1  0.53804  0.29533  0.20801  1
 H  H10  1  0.71305  0.96672  0.15184  1
 H  H11  1  0.70659  0.62809  0.28825  1
 H  H12  1  0.60519  0.09703  0.36188  1
 H  H13  1  0.28734  0.58831  0.33520  1
 H  H14  1  0.35839  0.59378  0.47469  1
 H  H15  1  0.51351  0.65700  0.06802  1
 H  H16  1  0.44191  0.58021  0.62204  1
 H  H17  1  0.00562  0.45758  0.13515  1
 H  H18  1  0.18074  0.12047  0.08195  1
 H  H19  1  0.99883  0.10993  0.26575  1
 H  H20  1  0.80809  0.57897  0.43911  1
 O  O1  1  0.91094  0.45528  0.74786  1
 O  O2  1  0.35934  0.38832  0.91404  1
 O  O3  1  0.61015  0.88070  0.81397  1
 O  O4  1  0.05334  0.83223  0.97182  1
