CIF file written using JARVIS-Tools package.
data_Er4CdPt
_symmetry_space_group_name_H-M  'F-43m'
_cell_length_a       9.53056
_cell_length_b       9.53056
_cell_length_c       9.53056
_cell_angle_alpha    60
_cell_angle_beta     60
_cell_angle_gamma    60

_symmetry_Int_Tables_number  216
_chemical_formula_structural  Er4CdPt
_chemical_formula_sum  Er6Cd4Pt4
_cell_volume  612.1255411573502
_cell_formula_units_Z  4
loop_
  _symmetry_equiv_pos_site_id
 _symmetry_equiv_pos_as_xyz
 1  'x, y, z'
loop_
 _atom_site_type_symbol
 _atom_site_label
 _atom_site_symmetry_multiplicity
 _atom_site_fract_x
 _atom_site_fract_y
 _atom_site_fract_z
 _atom_site_fract_occupancy
 Cd  Cd1  1  0.25154  0.58282  0.58282  1
 Cd  Cd2  1  0.58282  0.25154  0.58282  1
 Cd  Cd3  1  0.58282  0.58282  0.25154  1
 Cd  Cd4  1  0.58282  0.58282  0.58282  1
 Er  Er1  1  0.35345  0.35345  0.35345  1
 Er  Er2  1  0.81037  0.18963  0.81037  1
 Er  Er3  1  0.35345  0.35345  0.93964  1
 Er  Er4  1  0.35345  0.93964  0.35345  1
 Er  Er5  1  0.93964  0.35345  0.35345  1
 Er  Er6  1  0.18963  0.81037  0.81037  1
 Er  Er7  1  0.81037  0.18963  0.18963  1
 Er  Er8  1  0.56523  0.93477  0.93477  1
 Er  Er9  1  0.18963  0.18963  0.81037  1
 Er  Er10  1  0.81037  0.81037  0.18963  1
 Er  Er11  1  0.93477  0.56523  0.56523  1
 Er  Er12  1  0.56523  0.93477  0.56523  1
 Er  Er13  1  0.93477  0.56523  0.93477  1
 Er  Er14  1  0.56523  0.56523  0.93477  1
 Er  Er15  1  0.93477  0.93477  0.56523  1
 Er  Er16  1  0.18963  0.81037  0.18963  1
 Pt  Pt1  1  0.14377  0.14377  0.56870  1
 Pt  Pt2  1  0.14377  0.56870  0.14377  1
 Pt  Pt3  1  0.14377  0.14377  0.14377  1
 Pt  Pt4  1  0.56870  0.14377  0.14377  1
