CIF file written using JARVIS-Tools package.
data_SnH4C2F2
_symmetry_space_group_name_H-M  'P-1'
_cell_length_a       4.90152
_cell_length_b       6.24503
_cell_length_c       6.21896
_cell_angle_alpha    108.036
_cell_angle_beta     92.6236
_cell_angle_gamma    108.132

_symmetry_Int_Tables_number  2
_chemical_formula_structural  SnH4C2F2
_chemical_formula_sum  Sn2H8C4F4
_cell_volume  169.87887453704354
_cell_formula_units_Z  2
loop_
  _symmetry_equiv_pos_site_id
 _symmetry_equiv_pos_as_xyz
 1  'x, y, z'
loop_
 _atom_site_type_symbol
 _atom_site_label
 _atom_site_symmetry_multiplicity
 _atom_site_fract_x
 _atom_site_fract_y
 _atom_site_fract_z
 _atom_site_fract_occupancy
 C  C1  1  0.11201  0.18221  0.82746  1
 C  C2  1  0.39538  0.33957  0.78919  1
 C  C3  1  0.39604  0.76479  0.36443  1
 C  C4  1  0.11133  0.75698  0.25221  1
 F  F1  1  0.99325  0.22181  0.34032  1
 F  F2  1  0.51414  0.29997  0.27633  1
 F  F3  1  0.53018  0.89102  0.90728  1
 F  F4  1  0.97716  0.63077  0.70937  1
 H  H1  1  0.52630  0.47953  0.94570  1
 H  H2  1  0.97534  0.28038  0.91335  1
 H  H3  1  0.53201  0.24139  0.70326  1
 H  H4  1  0.52788  0.94321  0.48154  1
 H  H5  1  -0.02050  0.57856  0.13508  1
 H  H6  1  0.97956  0.82125  0.37629  1
 H  H7  1  0.52779  0.70050  0.24034  1
 H  H8  1  -0.01889  0.04224  0.67094  1
 Sn  Sn1  1  0.18455  0.99533  0.05274  1
 Sn  Sn2  1  0.32281  0.52648  0.56394  1
