CIF file written using JARVIS-Tools package.
data_Ga2Os
_symmetry_space_group_name_H-M  'Amm2'
_cell_length_a       6.36626
_cell_length_b       4.14556
_cell_length_c       2.93075
_cell_angle_alpha    89.9969
_cell_angle_beta     76.6759
_cell_angle_gamma    49.3825

_symmetry_Int_Tables_number  38
_chemical_formula_structural  Ga2Os
_chemical_formula_sum  Ga2Os
_cell_volume  55.94178566962072
_cell_formula_units_Z  1
loop_
  _symmetry_equiv_pos_site_id
 _symmetry_equiv_pos_as_xyz
 1  'x, y, z'
loop_
 _atom_site_type_symbol
 _atom_site_label
 _atom_site_symmetry_multiplicity
 _atom_site_fract_x
 _atom_site_fract_y
 _atom_site_fract_z
 _atom_site_fract_occupancy
 Ga  Ga1  1  0.86428  0.56792  0.47083  1
 Ga  Ga2  1  0.36469  0.56754  0.22038  1
 Os  Os1  1  0.90887  0.02333  0.94847  1
