CIF file written using JARVIS-Tools package.
data_SnH12C6F2
_symmetry_space_group_name_H-M  'P1'
_cell_length_a       4.38228
_cell_length_b       4.75343
_cell_length_c       18.0179
_cell_angle_alpha    82.634
_cell_angle_beta     90.2004
_cell_angle_gamma    84.3466

_symmetry_Int_Tables_number  1
_chemical_formula_structural  SnH12C6F2
_chemical_formula_sum  Sn2H24C2F4
_cell_volume  370.3697741563346
_cell_formula_units_Z  2
loop_
  _symmetry_equiv_pos_site_id
 _symmetry_equiv_pos_as_xyz
 1  'x, y, z'
loop_
 _atom_site_type_symbol
 _atom_site_label
 _atom_site_symmetry_multiplicity
 _atom_site_fract_x
 _atom_site_fract_y
 _atom_site_fract_z
 _atom_site_fract_occupancy
 C  C1  1  0.44902  0.75461  0.92662  1
 C  C2  1  0.98732  0.03303  0.29231  1
 C  C3  1  0.27504  0.98840  0.87153  1
 C  C4  1  0.19283  0.85906  0.80098  1
 C  C5  1  0.05310  0.43659  0.62405  1
 C  C6  1  0.55387  0.66518  0.15830  1
 C  C7  1  0.01429  0.05999  0.73884  1
 C  C8  1  0.21062  0.26986  0.69464  1
 C  C9  1  0.31611  0.69490  0.21873  1
 C  C10  1  0.18938  0.00260  0.22368  1
 C  C11  1  0.95474  0.06848  0.42989  1
 C  C12  1  0.17076  0.05320  0.36404  1
 F  F1  1  0.95852  0.84487  0.04005  1
 F  F2  1  0.41040  0.24764  0.04395  1
 F  F3  1  0.52082  0.96769  0.56661  1
 F  F4  1  0.41298  0.50295  0.47291  1
 H  H1  1  0.81832  0.17842  0.76315  1
 H  H2  1  0.91501  0.93074  0.69995  1
 H  H3  1  0.74358  0.79097  0.16686  1
 H  H4  1  0.64728  0.44358  0.15635  1
 H  H5  1  0.42707  0.60451  0.27303  1
 H  H6  1  0.16069  0.63343  0.60688  1
 H  H7  1  0.80552  0.48970  0.62880  1
 H  H8  1  0.34118  0.55496  0.92916  1
 H  H9  1  0.68986  0.71062  0.91148  1
 H  H10  1  0.41504  0.16739  0.85749  1
 H  H11  1  0.06258  0.07653  0.89641  1
 H  H12  1  0.34429  0.86992  0.37617  1
 H  H13  1  0.86492  0.86547  0.45000  1
 H  H14  1  0.75805  0.22893  0.41643  1
 H  H15  1  0.12719  0.56575  0.21135  1
 H  H16  1  0.82384  0.22568  0.28151  1
 H  H17  1  0.06096  0.08941  0.17164  1
 H  H18  1  0.38251  0.13228  0.22567  1
 H  H19  1  0.29260  0.24601  0.35479  1
 H  H20  1  0.05776  0.67899  0.81896  1
 H  H21  1  0.40683  0.76564  0.77773  1
 H  H22  1  0.42504  0.15262  0.67966  1
 H  H23  1  0.27699  0.42353  0.73083  1
 H  H24  1  0.84725  0.85133  0.30202  1
 Sn  Sn1  1  0.44771  0.81687  0.04254  1
 Sn  Sn2  1  0.14534  0.22271  0.52591  1
