CIF file written using JARVIS-Tools package.
data_Er4MgNi
_symmetry_space_group_name_H-M  'F-43m'
_cell_length_a       9.44776
_cell_length_b       9.44776
_cell_length_c       9.44776
_cell_angle_alpha    60
_cell_angle_beta     60
_cell_angle_gamma    60

_symmetry_Int_Tables_number  216
_chemical_formula_structural  Er4MgNi
_chemical_formula_sum  Er6Mg4Ni4
_cell_volume  596.3098470992153
_cell_formula_units_Z  4
loop_
  _symmetry_equiv_pos_site_id
 _symmetry_equiv_pos_as_xyz
 1  'x, y, z'
loop_
 _atom_site_type_symbol
 _atom_site_label
 _atom_site_symmetry_multiplicity
 _atom_site_fract_x
 _atom_site_fract_y
 _atom_site_fract_z
 _atom_site_fract_occupancy
 Er  Er1  1  0.18426  0.81574  0.81574  1
 Er  Er2  1  0.59601  0.59601  0.21197  1
 Er  Er3  1  0.81574  0.18426  0.18426  1
 Er  Er4  1  0.81574  0.18426  0.81574  1
 Er  Er5  1  0.18426  0.81574  0.18426  1
 Er  Er6  1  0.18426  0.18426  0.81574  1
 Er  Er7  1  0.59601  0.59601  0.59601  1
 Er  Er8  1  0.43715  0.06285  0.06285  1
 Er  Er9  1  0.81574  0.81574  0.18426  1
 Er  Er10  1  0.21197  0.59601  0.59601  1
 Er  Er11  1  0.06285  0.43715  0.43715  1
 Er  Er12  1  0.43715  0.06285  0.43715  1
 Er  Er13  1  0.06285  0.43715  0.06285  1
 Er  Er14  1  0.43715  0.43715  0.06285  1
 Er  Er15  1  0.06285  0.06285  0.43715  1
 Er  Er16  1  0.59601  0.21197  0.59601  1
 Mg  Mg1  1  0.82970  0.82970  0.82970  1
 Mg  Mg2  1  0.82970  0.82970  0.51091  1
 Mg  Mg3  1  0.82970  0.51091  0.82970  1
 Mg  Mg4  1  0.51091  0.82970  0.82970  1
 Ni  Ni1  1  0.39191  0.39191  0.82426  1
 Ni  Ni2  1  0.39191  0.82426  0.39191  1
 Ni  Ni3  1  0.39191  0.39191  0.39191  1
 Ni  Ni4  1  0.82426  0.39191  0.39191  1
