CIF file written using JARVIS-Tools package.
data_Ca3Fe2Br2O5
_symmetry_space_group_name_H-M  'I4/mmm'
_cell_length_a       5.41928
_cell_length_b       5.41785
_cell_length_c       12.801
_cell_angle_alpha    90
_cell_angle_beta     77.7839
_cell_angle_gamma    89.9999

_symmetry_Int_Tables_number  139
_chemical_formula_structural  Ca3Fe2Br2O5
_chemical_formula_sum  Ca6Fe4Br4O0
_cell_volume  367.336619388939
_cell_formula_units_Z  2
loop_
  _symmetry_equiv_pos_site_id
 _symmetry_equiv_pos_as_xyz
 1  'x, y, z'
loop_
 _atom_site_type_symbol
 _atom_site_label
 _atom_site_symmetry_multiplicity
 _atom_site_fract_x
 _atom_site_fract_y
 _atom_site_fract_z
 _atom_site_fract_occupancy
 Br  Br1  1  0.19520  0.00000  0.60947  1
 Br  Br2  1  0.30480  0.50000  0.39053  1
 Br  Br3  1  0.80478  0.00000  0.39053  1
 Br  Br4  1  0.69522  0.49999  0.60947  1
 Ca  Ca1  1  0.86119  0.50000  0.27776  1
 Ca  Ca2  1  0.49997  -0.00001  0.00000  1
 Ca  Ca3  1  0.63881  0.00000  0.72224  1
 Ca  Ca4  1  0.13880  0.50000  0.72224  1
 Ca  Ca5  1  0.00003  0.50002  0.00000  1
 Ca  Ca6  1  0.36119  0.00000  0.27776  1
 Fe  Fe1  1  0.42518  0.50000  0.14974  1
 Fe  Fe2  1  0.07482  -0.00000  0.85026  1
 Fe  Fe3  1  0.92519  -0.00000  0.14974  1
 Fe  Fe4  1  0.57481  0.50000  0.85026  1
 O  O1  1  0.66853  0.75000  0.16303  1
 O  O2  1  0.16853  0.25000  0.16304  1
 O  O3  1  0.33148  0.75000  0.83694  1
 O  O4  1  0.83146  0.25000  0.83699  1
 O  O5  1  0.49991  0.50006  -0.00000  1
 O  O6  1  0.66854  0.25000  0.16301  1
 O  O7  1  0.00009  0.99994  0.00000  1
 O  O8  1  0.33147  0.25000  0.83696  1
 O  O9  1  0.16852  0.75000  0.16306  1
 O  O10  1  0.83147  0.75000  0.83697  1
