CIF file written using JARVIS-Tools package.
data_YZnO4
_symmetry_space_group_name_H-M  'Cmmm'
_cell_length_a       4.75681
_cell_length_b       4.75681
_cell_length_c       3.42884
_cell_angle_alpha    90
_cell_angle_beta     90
_cell_angle_gamma    87.4683

_symmetry_Int_Tables_number  65
_chemical_formula_structural  YZnO4
_chemical_formula_sum  YZnO4
_cell_volume  77.50951737014992
_cell_formula_units_Z  1
loop_
  _symmetry_equiv_pos_site_id
 _symmetry_equiv_pos_as_xyz
 1  'x, y, z'
loop_
 _atom_site_type_symbol
 _atom_site_label
 _atom_site_symmetry_multiplicity
 _atom_site_fract_x
 _atom_site_fract_y
 _atom_site_fract_z
 _atom_site_fract_occupancy
 O  O1  1  0.17501  0.17501  0.50000  1
 O  O2  1  0.71340  0.28660  0.00000  1
 O  O3  1  0.28660  0.71340  0.00000  1
 O  O4  1  0.82499  0.82499  0.50000  1
 Y  Y1  1  0.50000  0.50000  0.50000  1
 Zn  Zn1  1  0.00000  0.00000  0.00000  1
