CIF file written using JARVIS-Tools package.
data_VZnO2
_symmetry_space_group_name_H-M  'P4mm'
_cell_length_a       2.73391
_cell_length_b       2.73391
_cell_length_c       7.24161
_cell_angle_alpha    90
_cell_angle_beta     90
_cell_angle_gamma    90

_symmetry_Int_Tables_number  99
_chemical_formula_structural  VZnO2
_chemical_formula_sum  VZnO2
_cell_volume  54.1256036935387
_cell_formula_units_Z  1
loop_
  _symmetry_equiv_pos_site_id
 _symmetry_equiv_pos_as_xyz
 1  'x, y, z'
loop_
 _atom_site_type_symbol
 _atom_site_label
 _atom_site_symmetry_multiplicity
 _atom_site_fract_x
 _atom_site_fract_y
 _atom_site_fract_z
 _atom_site_fract_occupancy
 O  O1  1  0.00000  0.00000  0.93500  1
 O  O2  1  0.50000  0.50000  0.24040  1
 V  V1  1  0.00000  0.00000  0.16082  1
 Zn  Zn1  1  0.50000  0.50000  0.66378  1
