CIF file written using JARVIS-Tools package.
data_BaTiGe3O9
_symmetry_space_group_name_H-M  'P-6c2'
_cell_length_a       6.86775
_cell_length_b       6.86776
_cell_length_c       10.2769
_cell_angle_alpha    90
_cell_angle_beta     90
_cell_angle_gamma    120

_symmetry_Int_Tables_number  188
_chemical_formula_structural  BaTiGe3O9
_chemical_formula_sum  Ba2Ti2Ge6O8
_cell_volume  419.77867539563204
_cell_formula_units_Z  2
loop_
  _symmetry_equiv_pos_site_id
 _symmetry_equiv_pos_as_xyz
 1  'x, y, z'
loop_
 _atom_site_type_symbol
 _atom_site_label
 _atom_site_symmetry_multiplicity
 _atom_site_fract_x
 _atom_site_fract_y
 _atom_site_fract_z
 _atom_site_fract_occupancy
 Ba  Ba1  1  0.00000  0.00000  0.00000  1
 Ba  Ba2  1  0.00000  0.00000  0.50000  1
 Ge  Ge1  1  0.41221  0.96757  0.75000  1
 Ge  Ge2  1  0.55535  0.96757  0.25000  1
 Ge  Ge3  1  0.55535  0.58779  0.75000  1
 Ge  Ge4  1  0.41221  0.44465  0.25000  1
 Ge  Ge5  1  0.03243  0.44465  0.75000  1
 Ge  Ge6  1  0.03243  0.58779  0.25000  1
 O  O1  1  0.41883  0.30982  0.10708  1
 O  O2  1  0.89099  0.30982  0.60708  1
 O  O3  1  0.89099  0.58117  0.10708  1
 O  O4  1  0.89099  0.58117  0.39292  1
 O  O5  1  0.61126  0.87328  0.75000  1
 O  O6  1  0.69018  0.10901  0.10708  1
 O  O7  1  0.41883  0.30982  0.39292  1
 O  O8  1  0.41883  0.10901  0.60708  1
 O  O9  1  0.69018  0.10901  0.39292  1
 O  O10  1  0.61126  0.73798  0.25000  1
 O  O11  1  0.69018  0.58117  0.89292  1
 O  O12  1  0.12672  0.38874  0.25000  1
 O  O13  1  0.89099  0.30982  0.89292  1
 O  O14  1  0.12672  0.73798  0.75000  1
 O  O15  1  0.26202  0.87328  0.25000  1
 O  O16  1  0.41883  0.10901  0.89292  1
 O  O17  1  0.69018  0.58117  0.60708  1
 O  O18  1  0.26202  0.38874  0.75000  1
 Ti  Ti1  1  0.66667  0.33333  0.50000  1
 Ti  Ti2  1  0.66667  0.33333  0.00000  1
