CIF file written using JARVIS-Tools package.
data_BaClO
_symmetry_space_group_name_H-M  'Pnma'
_cell_length_a       4.19683
_cell_length_b       7.63846
_cell_length_c       9.02008
_cell_angle_alpha    90
_cell_angle_beta     90
_cell_angle_gamma    90

_symmetry_Int_Tables_number  62
_chemical_formula_structural  BaClO
_chemical_formula_sum  Ba4Cl4O4
_cell_volume  289.1595008488506
_cell_formula_units_Z  4
loop_
  _symmetry_equiv_pos_site_id
 _symmetry_equiv_pos_as_xyz
 1  'x, y, z'
loop_
 _atom_site_type_symbol
 _atom_site_label
 _atom_site_symmetry_multiplicity
 _atom_site_fract_x
 _atom_site_fract_y
 _atom_site_fract_z
 _atom_site_fract_occupancy
 Ba  Ba1  1  0.25000  0.77552  0.87244  1
 Ba  Ba2  1  0.75000  0.22448  0.12756  1
 Ba  Ba3  1  0.75000  0.72448  0.37244  1
 Ba  Ba4  1  0.25000  0.27552  0.62756  1
 Cl  Cl1  1  0.25000  0.54148  0.16067  1
 Cl  Cl2  1  0.75000  0.45852  0.83933  1
 Cl  Cl3  1  0.75000  0.95852  0.66067  1
 Cl  Cl4  1  0.25000  0.04148  0.33933  1
 O  O1  1  0.25000  0.60295  0.53988  1
 O  O2  1  0.75000  0.39705  0.46012  1
 O  O3  1  0.75000  0.89705  0.03988  1
 O  O4  1  0.25000  0.10295  0.96012  1
