CIF file written using JARVIS-Tools package.
data_H20PbC12O4
_symmetry_space_group_name_H-M  'P1'
_cell_length_a       3.82592
_cell_length_b       5.14611
_cell_length_c       15.8686
_cell_angle_alpha    94.2396
_cell_angle_beta     88.9138
_cell_angle_gamma    93.7275

_symmetry_Int_Tables_number  1
_chemical_formula_structural  H20PbC12O4
_chemical_formula_sum  H20PbC2O4
_cell_volume  310.885151475953
_cell_formula_units_Z  1
loop_
  _symmetry_equiv_pos_site_id
 _symmetry_equiv_pos_as_xyz
 1  'x, y, z'
loop_
 _atom_site_type_symbol
 _atom_site_label
 _atom_site_symmetry_multiplicity
 _atom_site_fract_x
 _atom_site_fract_y
 _atom_site_fract_z
 _atom_site_fract_occupancy
 C  C1  1  0.45438  0.95846  0.62294  1
 C  C2  1  0.82581  0.48198  0.27227  1
 C  C3  1  0.71458  0.43066  0.36116  1
 C  C4  1  0.63836  0.18368  0.48998  1
 C  C5  1  0.56940  0.92366  0.53000  1
 C  C6  1  0.73883  0.16102  0.39566  1
 C  C7  1  0.34294  0.70115  0.66120  1
 C  C8  1  0.26305  0.72802  0.75632  1
 C  C9  1  0.12161  0.46650  0.78946  1
 C  C10  1  0.13445  0.46082  0.88386  1
 C  C11  1  0.84886  0.46299  0.93557  1
 C  C12  1  0.46520  0.36340  0.92186  1
 H  H1  1  0.86709  0.57898  0.40096  1
 H  H2  1  0.84334  0.30375  0.52573  1
 H  H3  1  0.66988  0.06044  0.66014  1
 H  H4  1  0.23571  0.08829  0.62855  1
 H  H5  1  0.43951  0.48250  0.36610  1
 H  H6  1  0.07153  0.87641  0.77117  1
 H  H7  1  0.39994  0.29310  0.49815  1
 H  H8  1  0.48660  0.17380  0.88443  1
 H  H9  1  0.90817  0.45216  0.00226  1
 H  H10  1  0.85154  0.42224  0.76735  1
 H  H11  1  0.27950  0.31161  0.76018  1
 H  H12  1  0.11094  0.60980  0.62770  1
 H  H13  1  0.50325  0.79867  0.79049  1
 H  H14  1  0.54993  0.56312  0.64938  1
 H  H15  1  0.80503  0.81111  0.52475  1
 H  H16  1  0.56109  0.01804  0.36065  1
 H  H17  1  0.00387  0.09285  0.38563  1
 H  H18  1  0.38174  0.30721  0.98489  1
 H  H19  1  0.94058  0.93055  0.00143  1
 H  H20  1  0.36506  0.80464  0.49385  1
 O  O1  1  0.40819  0.14497  0.22866  1
 O  O2  1  0.94423  0.00907  0.05971  1
 O  O3  1  0.03126  0.66981  0.25646  1
 O  O4  1  0.67500  0.34847  0.20541  1
 Pb  Pb1  1  0.40857  0.81992  0.12362  1
