CIF file written using JARVIS-Tools package.
data_AsXe2OF10
_symmetry_space_group_name_H-M  'I4/mcm'
_cell_length_a       8.58459
_cell_length_b       8.58459
_cell_length_c       8.58459
_cell_angle_alpha    120.453
_cell_angle_beta     120.453
_cell_angle_gamma    89.218

_symmetry_Int_Tables_number  140
_chemical_formula_structural  AsXe2OF10
_chemical_formula_sum  As2Xe4O2F20
_cell_volume  444.2410287238214
_cell_formula_units_Z  2
loop_
  _symmetry_equiv_pos_site_id
 _symmetry_equiv_pos_as_xyz
 1  'x, y, z'
loop_
 _atom_site_type_symbol
 _atom_site_label
 _atom_site_symmetry_multiplicity
 _atom_site_fract_x
 _atom_site_fract_y
 _atom_site_fract_z
 _atom_site_fract_occupancy
 As  As1  1  0.00000  0.00000  0.00000  1
 As  As2  1  0.50000  0.50000  -0.00000  1
 F  F1  1  0.18607  0.09291  0.27898  1
 F  F2  1  0.81393  0.90709  0.72102  1
 F  F3  1  0.09291  0.81393  0.90684  1
 F  F4  1  0.68607  0.40709  0.09316  1
 F  F5  1  0.90709  0.18607  0.09316  1
 F  F6  1  0.73992  0.45624  0.50000  1
 F  F7  1  0.59291  0.68607  0.27898  1
 F  F8  1  0.40709  0.31393  0.72102  1
 F  F9  1  0.31393  0.59291  0.90684  1
 F  F10  1  0.85459  0.85459  -0.00000  1
 F  F11  1  0.54376  0.04376  0.28368  1
 F  F12  1  0.35459  0.35459  -0.00000  1
 F  F13  1  0.95624  0.23992  0.50000  1
 F  F14  1  0.26008  0.54376  0.50000  1
 F  F15  1  0.45624  0.95624  0.71632  1
 F  F16  1  0.23992  0.73992  0.28368  1
 F  F17  1  0.76008  0.26008  0.71632  1
 F  F18  1  0.64541  0.64541  0.00000  1
 F  F19  1  0.14541  0.14541  0.00000  1
 F  F20  1  0.04376  0.76008  0.50000  1
 O  O1  1  0.00000  0.50000  0.50000  1
 O  O2  1  0.50000  -0.00000  0.50000  1
 Xe  Xe1  1  -0.00000  0.50000  -0.00000  1
 Xe  Xe2  1  0.50000  -0.00000  -0.00000  1
 Xe  Xe3  1  -0.00000  0.00000  0.50000  1
 Xe  Xe4  1  0.50000  0.50000  0.50000  1
