CIF file written using JARVIS-Tools package.
data_ZrCrFe
_symmetry_space_group_name_H-M  'Amm2'
_cell_length_a       4.8508
_cell_length_b       4.8508
_cell_length_c       8.30873
_cell_angle_alpha    90
_cell_angle_beta     90
_cell_angle_gamma    118.167

_symmetry_Int_Tables_number  38
_chemical_formula_structural  ZrCrFe
_chemical_formula_sum  Zr4Cr4Fe4
_cell_volume  172.3530412675488
_cell_formula_units_Z  4
loop_
  _symmetry_equiv_pos_site_id
 _symmetry_equiv_pos_as_xyz
 1  'x, y, z'
loop_
 _atom_site_type_symbol
 _atom_site_label
 _atom_site_symmetry_multiplicity
 _atom_site_fract_x
 _atom_site_fract_y
 _atom_site_fract_z
 _atom_site_fract_occupancy
 Cr  Cr1  1  0.84112  0.15888  0.00000  1
 Cr  Cr2  1  0.16770  0.33980  0.50000  1
 Cr  Cr3  1  0.66020  0.83230  0.50000  1
 Cr  Cr4  1  0.16791  0.83209  0.50000  1
 Fe  Fe1  1  0.99561  0.00439  0.24662  1
 Fe  Fe2  1  0.99561  0.00439  0.75338  1
 Fe  Fe3  1  0.83359  0.65535  0.00000  1
 Fe  Fe4  1  0.34465  0.16641  0.00000  1
 Zr  Zr1  1  0.33083  0.66917  0.18477  1
 Zr  Zr2  1  0.66598  0.33402  0.30941  1
 Zr  Zr3  1  0.66598  0.33402  0.69059  1
 Zr  Zr4  1  0.33083  0.66917  0.81523  1
