CIF file written using JARVIS-Tools package.
data_ZrAlRh
_symmetry_space_group_name_H-M  'Amm2'
_cell_length_a       5.31636
_cell_length_b       5.31636
_cell_length_c       8.22768
_cell_angle_alpha    90
_cell_angle_beta     90
_cell_angle_gamma    119.322

_symmetry_Int_Tables_number  38
_chemical_formula_structural  ZrAlRh
_chemical_formula_sum  Zr4Al4Rh4
_cell_volume  202.75120943083996
_cell_formula_units_Z  4
loop_
  _symmetry_equiv_pos_site_id
 _symmetry_equiv_pos_as_xyz
 1  'x, y, z'
loop_
 _atom_site_type_symbol
 _atom_site_label
 _atom_site_symmetry_multiplicity
 _atom_site_fract_x
 _atom_site_fract_y
 _atom_site_fract_z
 _atom_site_fract_occupancy
 Al  Al1  1  0.00520  0.99480  0.24440  1
 Al  Al2  1  0.00520  0.99480  0.75560  1
 Al  Al3  1  0.65270  0.83129  0.50000  1
 Al  Al4  1  0.16871  0.34730  0.50000  1
 Rh  Rh1  1  0.16822  0.83178  0.50000  1
 Rh  Rh2  1  0.33924  0.16805  0.00000  1
 Rh  Rh3  1  0.83195  0.66076  0.00000  1
 Rh  Rh4  1  0.83386  0.16614  0.00000  1
 Zr  Zr1  1  0.66589  0.33411  0.29144  1
 Zr  Zr2  1  0.33156  0.66844  0.17715  1
 Zr  Zr3  1  0.33156  0.66844  0.82285  1
 Zr  Zr4  1  0.66589  0.33411  0.70856  1
