CIF file written using JARVIS-Tools package.
data_H8C3
_symmetry_space_group_name_H-M  'P2_1/c'
_cell_length_a       4.01915
_cell_length_b       12.3738
_cell_length_c       7.70536
_cell_angle_alpha    90
_cell_angle_beta     119.963
_cell_angle_gamma    90

_symmetry_Int_Tables_number  14
_chemical_formula_structural  H8C3
_chemical_formula_sum  H32C2
_cell_volume  331.98895670596977
_cell_formula_units_Z  4
loop_
  _symmetry_equiv_pos_site_id
 _symmetry_equiv_pos_as_xyz
 1  'x, y, z'
loop_
 _atom_site_type_symbol
 _atom_site_label
 _atom_site_symmetry_multiplicity
 _atom_site_fract_x
 _atom_site_fract_y
 _atom_site_fract_z
 _atom_site_fract_occupancy
 C  C1  1  0.62568  0.25607  0.35387  1
 C  C2  1  0.62568  0.24393  0.85387  1
 C  C3  1  0.58463  0.37486  0.39535  1
 C  C4  1  0.41537  0.62514  0.60465  1
 C  C5  1  0.41537  0.87486  0.10465  1
 C  C6  1  0.37432  0.75607  0.14613  1
 C  C7  1  0.50344  0.44836  0.21872  1
 C  C8  1  0.49656  0.94836  0.28128  1
 C  C9  1  0.50344  0.05164  0.71872  1
 C  C10  1  0.37432  0.74393  0.64613  1
 C  C11  1  0.49656  0.55164  0.78128  1
 C  C12  1  0.58463  0.12514  0.89535  1
 H  H1  1  0.75137  0.92064  0.41938  1
 H  H2  1  0.45173  0.96781  0.74566  1
 H  H3  1  0.64907  0.88278  0.07015  1
 H  H4  1  0.35093  0.11722  0.92985  1
 H  H5  1  0.45173  0.53219  0.24566  1
 H  H6  1  0.54827  0.46781  0.75434  1
 H  H7  1  0.54827  0.03219  0.25434  1
 H  H8  1  0.25445  0.55123  0.80980  1
 H  H9  1  0.24863  0.42064  0.08062  1
 H  H10  1  0.75137  0.57936  0.91938  1
 H  H11  1  0.74555  0.05123  0.69020  1
 H  H12  1  0.35093  0.38278  0.42985  1
 H  H13  1  0.36495  0.22757  0.21962  1
 H  H14  1  0.63505  0.77243  0.78038  1
 H  H15  1  0.63505  0.72757  0.28038  1
 H  H16  1  0.36495  0.27243  0.71962  1
 H  H17  1  0.67268  0.20388  0.47934  1
 H  H18  1  0.32732  0.79612  0.52066  1
 H  H19  1  0.32732  0.70388  0.02066  1
 H  H20  1  0.67268  0.29612  0.97934  1
 H  H21  1  0.74555  0.44877  0.19020  1
 H  H22  1  0.86787  0.24414  0.32725  1
 H  H23  1  0.86787  0.25586  0.82725  1
 H  H24  1  0.84677  0.40218  0.53089  1
 H  H25  1  0.15323  0.59782  0.46911  1
 H  H26  1  0.15323  0.90218  0.96911  1
 H  H27  1  0.84677  0.09782  0.03089  1
 H  H28  1  0.13213  0.74414  0.17275  1
 H  H29  1  0.64907  0.61722  0.57015  1
 H  H30  1  0.25445  0.94877  0.30980  1
 H  H31  1  0.13213  0.75586  0.67275  1
 H  H32  1  0.24863  0.07936  0.58062  1
