CIF file written using JARVIS-Tools package.
data_H13C9
_symmetry_space_group_name_H-M  'P-1'
_cell_length_a       6.77805
_cell_length_b       7.43477
_cell_length_c       8.2469
_cell_angle_alpha    64.1842
_cell_angle_beta     68.8018
_cell_angle_gamma    69.1697

_symmetry_Int_Tables_number  2
_chemical_formula_structural  H13C9
_chemical_formula_sum  H26C8
_cell_volume  338.93785751248515
_cell_formula_units_Z  2
loop_
  _symmetry_equiv_pos_site_id
 _symmetry_equiv_pos_as_xyz
 1  'x, y, z'
loop_
 _atom_site_type_symbol
 _atom_site_label
 _atom_site_symmetry_multiplicity
 _atom_site_fract_x
 _atom_site_fract_y
 _atom_site_fract_z
 _atom_site_fract_occupancy
 C  C1  1  0.77069  0.71452  0.40572  1
 C  C2  1  0.26797  0.81130  0.49771  1
 C  C3  1  0.63100  0.67922  0.59964  1
 C  C4  1  0.73203  0.18870  0.50229  1
 C  C5  1  0.07554  0.75553  0.92435  1
 C  C6  1  0.92446  0.24447  0.07565  1
 C  C7  1  0.48955  0.76596  0.00520  1
 C  C8  1  0.36900  0.32078  0.40036  1
 C  C9  1  0.51045  0.23404  0.99480  1
 C  C10  1  0.60929  0.27132  0.35602  1
 C  C11  1  0.30960  0.69450  0.82886  1
 C  C12  1  0.69040  0.30550  0.17114  1
 C  C13  1  0.49878  0.61182  0.92235  1
 C  C14  1  0.69435  0.61098  0.75817  1
 C  C15  1  0.30565  0.38902  0.24183  1
 C  C16  1  0.22931  0.28548  0.59428  1
 C  C17  1  0.50122  0.38818  0.07765  1
 C  C18  1  0.39071  0.72868  0.64398  1
 H  H1  1  0.94249  0.16534  0.98336  1
 H  H2  1  0.00057  0.37507  0.98721  1
 H  H3  1  0.02247  0.13963  0.17648  1
 H  H4  1  0.05751  0.83466  0.01664  1
 H  H5  1  0.50420  0.08249  0.10394  1
 H  H6  1  0.62685  0.71480  0.06792  1
 H  H7  1  0.86140  0.56668  0.76841  1
 H  H8  1  0.13860  0.43332  0.23159  1
 H  H9  1  0.72680  0.87707  0.31735  1
 H  H10  1  0.27320  0.12293  0.68265  1
 H  H11  1  0.25203  0.37695  0.65864  1
 H  H12  1  0.94397  0.67511  0.40196  1
 H  H13  1  0.05603  0.32489  0.59804  1
 H  H14  1  0.09323  0.81994  0.55753  1
 H  H15  1  0.33832  0.78276  0.11338  1
 H  H16  1  0.90677  0.18006  0.44247  1
 H  H17  1  0.67104  0.28712  0.58680  1
 H  H18  1  0.28868  0.96641  0.40164  1
 H  H19  1  0.74797  0.62305  0.34136  1
 H  H20  1  0.97753  0.86037  0.82352  1
 H  H21  1  0.71132  0.03359  0.59836  1
 H  H22  1  0.49580  0.91751  0.89606  1
 H  H23  1  0.66168  0.21724  0.88662  1
 H  H24  1  0.37315  0.28520  0.93208  1
 H  H25  1  0.32896  0.71288  0.41320  1
 H  H26  1  -0.00057  0.62493  0.01279  1
