CIF file written using JARVIS-Tools package.
data_SnH8C4F2
_symmetry_space_group_name_H-M  'P-1'
_cell_length_a       4.42234
_cell_length_b       7.3558
_cell_length_c       8.82463
_cell_angle_alpha    92.4558
_cell_angle_beta     90.2005
_cell_angle_gamma    104.328

_symmetry_Int_Tables_number  2
_chemical_formula_structural  SnH8C4F2
_chemical_formula_sum  Sn2H6C8F4
_cell_volume  277.84998993423267
_cell_formula_units_Z  2
loop_
  _symmetry_equiv_pos_site_id
 _symmetry_equiv_pos_as_xyz
 1  'x, y, z'
loop_
 _atom_site_type_symbol
 _atom_site_label
 _atom_site_symmetry_multiplicity
 _atom_site_fract_x
 _atom_site_fract_y
 _atom_site_fract_z
 _atom_site_fract_occupancy
 C  C1  1  0.19175  0.32097  0.20816  1
 C  C2  1  0.02331  0.96698  0.24924  1
 C  C3  1  0.38051  0.50923  0.73189  1
 C  C4  1  0.14419  0.32377  0.76014  1
 C  C5  1  0.23731  0.15670  0.29833  1
 C  C6  1  0.40573  0.51069  0.25728  1
 C  C7  1  0.28487  0.15395  0.74645  1
 C  C8  1  0.04852  0.96849  0.77465  1
 F  F1  1  0.92729  0.58120  0.49635  1
 F  F2  1  0.90173  0.61714  -0.00029  1
 F  F3  1  0.52722  0.86045  0.50682  1
 F  F4  1  0.50161  0.89616  0.01014  1
 H  H1  1  0.94173  0.30144  0.68235  1
 H  H2  1  0.18893  0.18286  0.41938  1
 H  H3  1  0.48318  0.15031  0.29440  1
 H  H4  1  0.09444  0.85154  0.30198  1
 H  H5  1  0.61346  0.51323  0.77683  1
 H  H6  1  0.30654  0.62863  0.78433  1
 H  H7  1  0.04969  0.33553  0.87474  1
 H  H8  1  0.48729  0.17627  0.82426  1
 H  H9  1  0.94589  0.32736  0.21209  1
 H  H10  1  0.24015  0.29482  0.08712  1
 H  H11  1  0.64853  0.51919  0.22680  1
 H  H12  1  0.33459  0.62613  0.20455  1
 H  H13  1  0.37942  0.14223  0.63186  1
 H  H14  1  0.81557  0.96454  0.72973  1
 H  H15  1  0.12245  0.84910  0.72215  1
 H  H16  1  0.78052  0.95849  0.27972  1
 Sn  Sn1  1  0.42949  0.58083  0.49756  1
 Sn  Sn2  1  0.99949  0.89675  0.00895  1
