CIF file written using JARVIS-Tools package.
data_Zr7V5N2
_symmetry_space_group_name_H-M  'Imma'
_cell_length_a       8.65808
_cell_length_b       8.65808
_cell_length_c       8.65808
_cell_angle_alpha    119.964
_cell_angle_beta     119.876
_cell_angle_gamma    90.1385

_symmetry_Int_Tables_number  74
_chemical_formula_structural  Zr7V5N2
_chemical_formula_sum  Zr4V0N4
_cell_volume  459.4860759752442
_cell_formula_units_Z  2
loop_
  _symmetry_equiv_pos_site_id
 _symmetry_equiv_pos_as_xyz
 1  'x, y, z'
loop_
 _atom_site_type_symbol
 _atom_site_label
 _atom_site_symmetry_multiplicity
 _atom_site_fract_x
 _atom_site_fract_y
 _atom_site_fract_z
 _atom_site_fract_occupancy
 N  N1  1  0.50000  0.50000  0.50000  1
 N  N2  1  0.00000  0.00000  0.00000  1
 N  N3  1  0.50000  0.00000  0.00000  1
 N  N4  1  0.50000  0.00000  0.50000  1
 V  V1  1  0.88504  0.28765  0.59739  1
 V  V2  1  0.11496  0.71235  0.40261  1
 V  V3  1  0.80974  0.71235  0.09739  1
 V  V4  1  0.81002  0.72879  0.41877  1
 V  V5  1  0.81002  0.39125  0.08123  1
 V  V6  1  0.19026  0.28765  0.90261  1
 V  V7  1  0.18998  0.27121  0.58123  1
 V  V8  1  0.18998  0.60875  0.91877  1
 V  V9  1  0.00000  0.50000  -0.00000  1
 V  V10  1  0.00000  0.00000  0.50000  1
 Zr  Zr1  1  0.18991  0.93991  0.25000  1
 Zr  Zr2  1  0.18887  0.94283  0.87931  1
 Zr  Zr3  1  0.56353  0.30956  0.62069  1
 Zr  Zr4  1  0.56353  0.94283  0.25397  1
 Zr  Zr5  1  0.18887  0.30956  0.24603  1
 Zr  Zr6  1  -0.00000  0.50000  0.50000  1
 Zr  Zr7  1  0.43908  0.68908  0.75000  1
 Zr  Zr8  1  0.81113  0.05717  0.12069  1
 Zr  Zr9  1  0.43647  0.69044  0.37931  1
 Zr  Zr10  1  0.43647  0.05717  0.74603  1
 Zr  Zr11  1  0.81113  0.69044  0.75397  1
 Zr  Zr12  1  0.50000  0.50000  0.00000  1
 Zr  Zr13  1  0.56092  0.31092  0.25000  1
 Zr  Zr14  1  0.81009  0.06009  0.75000  1
