CIF file written using JARVIS-Tools package.
data_Zr8Co3Cu
_symmetry_space_group_name_H-M  'C222'
_cell_length_a       5.29765
_cell_length_b       5.29765
_cell_length_c       8.99296
_cell_angle_alpha    90
_cell_angle_beta     90
_cell_angle_gamma    119.424

_symmetry_Int_Tables_number  21
_chemical_formula_structural  Zr8Co3Cu
_chemical_formula_sum  Zr8Co3Cu
_cell_volume  219.83187720148788
_cell_formula_units_Z  1
loop_
  _symmetry_equiv_pos_site_id
 _symmetry_equiv_pos_as_xyz
 1  'x, y, z'
loop_
 _atom_site_type_symbol
 _atom_site_label
 _atom_site_symmetry_multiplicity
 _atom_site_fract_x
 _atom_site_fract_y
 _atom_site_fract_z
 _atom_site_fract_occupancy
 Co  Co1  1  0.00000  0.00000  0.50000  1
 Co  Co2  1  0.00000  0.00000  0.00000  1
 Co  Co3  1  0.50000  0.50000  0.50000  1
 Cu  Cu1  1  0.50000  0.50000  0.00000  1
 Zr  Zr1  1  -0.00000  0.50000  0.91574  1
 Zr  Zr2  1  0.50000  -0.00000  0.41614  1
 Zr  Zr3  1  -0.00000  0.50000  0.58386  1
 Zr  Zr4  1  0.50000  -0.00000  0.08426  1
 Zr  Zr5  1  0.33199  0.16219  0.74264  1
 Zr  Zr6  1  0.83781  0.66801  0.25736  1
 Zr  Zr7  1  0.66801  0.83781  0.74264  1
 Zr  Zr8  1  0.16219  0.33199  0.25736  1
