CIF file written using JARVIS-Tools package.
data_H9C7
_symmetry_space_group_name_H-M  'P2_1/c'
_cell_length_a       9.09226
_cell_length_b       5.24323
_cell_length_c       11.7037
_cell_angle_alpha    90
_cell_angle_beta     112.571
_cell_angle_gamma    90

_symmetry_Int_Tables_number  14
_chemical_formula_structural  H9C7
_chemical_formula_sum  H36C28
_cell_volume  515.2137847787743
_cell_formula_units_Z  4
loop_
  _symmetry_equiv_pos_site_id
 _symmetry_equiv_pos_as_xyz
 1  'x, y, z'
loop_
 _atom_site_type_symbol
 _atom_site_label
 _atom_site_symmetry_multiplicity
 _atom_site_fract_x
 _atom_site_fract_y
 _atom_site_fract_z
 _atom_site_fract_occupancy
 C  C1  1  0.93108  0.39889  0.11791  1
 C  C2  1  0.77315  0.44106  0.27656  1
 C  C3  1  0.78362  0.08301  0.64754  1
 C  C4  1  0.21638  0.91699  0.35246  1
 C  C5  1  0.21638  0.58301  0.85246  1
 C  C6  1  0.78362  0.41699  0.14754  1
 C  C7  1  0.18447  0.38271  0.93259  1
 C  C8  1  0.18447  0.11729  0.43259  1
 C  C9  1  0.81553  0.61729  0.06741  1
 C  C10  1  0.93108  0.10111  0.61791  1
 C  C11  1  0.22685  0.55894  0.72344  1
 C  C12  1  0.06892  0.89889  0.38209  1
 C  C13  1  0.22685  0.94106  0.22344  1
 C  C14  1  0.81553  0.88271  0.56741  1
 C  C15  1  0.63867  0.24615  0.22580  1
 C  C16  1  0.06892  0.60111  0.88209  1
 C  C17  1  0.55383  0.39339  0.49362  1
 C  C18  1  0.44617  0.60661  0.50638  1
 C  C19  1  0.44617  0.89339  0.00638  1
 C  C20  1  0.35334  0.73466  0.38716  1
 C  C21  1  0.64666  0.26534  0.61284  1
 C  C22  1  0.55383  0.10661  0.99362  1
 C  C23  1  0.64666  0.23466  0.11284  1
 C  C24  1  0.63867  0.25385  0.72580  1
 C  C25  1  0.36133  0.74615  0.27420  1
 C  C26  1  0.36133  0.75385  0.77420  1
 C  C27  1  0.35334  0.76534  0.88716  1
 C  C28  1  0.77315  0.05894  0.77656  1
 H  H1  1  0.26300  0.13166  0.20427  1
 H  H2  1  0.73700  0.63166  0.29573  1
 H  H3  1  0.56319  0.34698  0.76639  1
 H  H4  1  0.26300  0.36834  0.70427  1
 H  H5  1  0.48041  0.24895  0.42757  1
 H  H6  1  0.43681  0.84698  0.73361  1
 H  H7  1  0.85171  0.69358  0.60667  1
 H  H8  1  0.14829  0.30642  0.39333  1
 H  H9  1  0.14829  0.19358  0.89333  1
 H  H10  1  0.85171  0.80642  0.10667  1
 H  H11  1  0.74024  0.88552  0.46899  1
 H  H12  1  0.25976  0.11448  0.53101  1
 H  H13  1  0.25976  0.38552  0.03101  1
 H  H14  1  0.74024  0.61448  0.96899  1
 H  H15  1  0.04549  0.05852  0.69170  1
 H  H16  1  0.95451  0.94148  0.30830  1
 H  H17  1  0.95451  0.55852  0.80830  1
 H  H18  1  0.93531  0.24747  0.55313  1
 H  H19  1  0.06469  0.75253  0.44687  1
 H  H20  1  0.56319  0.15302  0.26639  1
 H  H21  1  0.06469  0.74747  0.94687  1
 H  H22  1  0.87981  0.38024  0.35556  1
 H  H23  1  0.12019  0.61976  0.64444  1
 H  H24  1  0.04549  0.44148  0.19170  1
 H  H25  1  0.87981  0.11976  0.85556  1
 H  H26  1  0.12019  0.88024  0.14444  1
 H  H27  1  0.51959  0.75105  0.57243  1
 H  H28  1  0.51959  0.74895  0.07243  1
 H  H29  1  0.63533  0.46892  0.45244  1
 H  H30  1  0.36467  0.53108  0.54756  1
 H  H31  1  0.36467  0.96892  0.04756  1
 H  H32  1  0.63533  0.03108  0.95244  1
 H  H33  1  0.48041  0.25105  0.92757  1
 H  H34  1  0.43681  0.65302  0.23361  1
 H  H35  1  0.93531  0.25253  0.05313  1
 H  H36  1  0.73700  0.86834  0.79573  1
