CIF file written using JARVIS-Tools package.
data_ZrAlIr
_symmetry_space_group_name_H-M  'Amm2'
_cell_length_a       5.35
_cell_length_b       5.35
_cell_length_c       8.23697
_cell_angle_alpha    90
_cell_angle_beta     90
_cell_angle_gamma    119.473

_symmetry_Int_Tables_number  38
_chemical_formula_structural  ZrAlIr
_chemical_formula_sum  Zr4Al4Ir4
_cell_volume  205.2525316860982
_cell_formula_units_Z  4
loop_
  _symmetry_equiv_pos_site_id
 _symmetry_equiv_pos_as_xyz
 1  'x, y, z'
loop_
 _atom_site_type_symbol
 _atom_site_label
 _atom_site_symmetry_multiplicity
 _atom_site_fract_x
 _atom_site_fract_y
 _atom_site_fract_z
 _atom_site_fract_occupancy
 Al  Al1  1  0.99435  0.00565  0.25350  1
 Al  Al2  1  0.99435  0.00565  0.74650  1
 Al  Al3  1  0.82923  0.65376  0.00000  1
 Al  Al4  1  0.34624  0.17077  0.00000  1
 Ir  Ir1  1  0.82968  0.17032  0.00000  1
 Ir  Ir2  1  0.16859  0.33771  0.50000  1
 Ir  Ir3  1  0.66229  0.83141  0.50000  1
 Ir  Ir4  1  0.16634  0.83366  0.50000  1
 Zr  Zr1  1  0.33466  0.66534  0.20836  1
 Zr  Zr2  1  0.67000  0.33000  0.32284  1
 Zr  Zr3  1  0.67000  0.33000  0.67716  1
 Zr  Zr4  1  0.33466  0.66534  0.79164  1
