CIF file written using JARVIS-Tools package.
data_SnH12C6F2
_symmetry_space_group_name_H-M  'P2_1'
_cell_length_a       4.44239
_cell_length_b       8.12358
_cell_length_c       10.0972
_cell_angle_alpha    90.002
_cell_angle_beta     89.9992
_cell_angle_gamma    86.9991

_symmetry_Int_Tables_number  4
_chemical_formula_structural  SnH12C6F2
_chemical_formula_sum  Sn2H24C2F4
_cell_volume  363.8893566040539
_cell_formula_units_Z  2
loop_
  _symmetry_equiv_pos_site_id
 _symmetry_equiv_pos_as_xyz
 1  'x, y, z'
loop_
 _atom_site_type_symbol
 _atom_site_label
 _atom_site_symmetry_multiplicity
 _atom_site_fract_x
 _atom_site_fract_y
 _atom_site_fract_z
 _atom_site_fract_occupancy
 C  C1  1  0.66770  0.45628  0.84938  1
 C  C2  1  -0.06406  0.06118  0.21592  1
 C  C3  1  0.86895  0.29781  0.85514  1
 C  C4  1  0.97390  0.24509  0.71596  1
 C  C5  1  0.24404  0.78123  0.74544  1
 C  C6  1  0.66575  0.52504  0.24544  1
 C  C7  1  0.19011  0.09238  0.71784  1
 C  C8  1  0.04758  0.93768  0.76960  1
 C  C9  1  0.86225  0.36859  0.26955  1
 C  C10  1  0.71972  0.21389  0.21780  1
 C  C11  1  0.24209  0.85000  0.34936  1
 C  C12  1  0.04087  0.00848  0.35510  1
 F  F1  1  0.59532  0.82232  0.01196  1
 F  F2  1  0.12934  0.59234  0.03661  1
 F  F3  1  0.78036  0.71401  0.53660  1
 F  F4  1  0.31425  0.48401  0.51192  1
 H  H1  1  0.38879  0.11606  0.77872  1
 H  H2  1  0.27663  0.07075  0.61613  1
 H  H3  1  0.43912  0.51376  0.28551  1
 H  H4  1  0.76158  0.63398  0.28916  1
 H  H5  1  0.90300  0.35826  0.37694  1
 H  H6  1  0.14823  0.67228  0.78915  1
 H  H7  1  0.47071  0.79249  0.78547  1
 H  H8  1  0.76392  0.54731  0.78345  1
 H  H9  1  0.44167  0.43373  0.81256  1
 H  H10  1  0.74735  0.19896  0.90278  1
 H  H11  1  0.06933  0.31473  0.91725  1
 H  H12  1  0.16248  0.10733  0.40274  1
 H  H13  1  0.14590  0.75897  0.28342  1
 H  H14  1  0.46815  0.87254  0.31257  1
 H  H15  1  0.08413  0.37889  0.22297  1
 H  H16  1  -0.17484  0.95882  0.16824  1
 H  H17  1  0.63318  0.23550  0.11609  1
 H  H18  1  0.52105  0.19020  0.27869  1
 H  H19  1  0.84047  -0.00842  0.41721  1
 H  H20  1  0.08470  0.34744  0.66828  1
 H  H21  1  0.77633  0.22221  0.65354  1
 H  H22  1  0.82567  0.92740  0.72305  1
 H  H23  1  0.00692  -0.05200  0.87701  1
 H  H24  1  0.13352  0.08405  0.15350  1
 Sn  Sn1  1  0.61990  0.58044  0.03778  1
 Sn  Sn2  1  0.28972  0.72588  0.53777  1
