CIF file written using JARVIS-Tools package.
data_PbS2
_symmetry_space_group_name_H-M  'Pmmm'
_cell_length_a       5.17499
_cell_length_b       5.50024
_cell_length_c       3.2378
_cell_angle_alpha    90
_cell_angle_beta     90
_cell_angle_gamma    90

_symmetry_Int_Tables_number  47
_chemical_formula_structural  PbS2
_chemical_formula_sum  PbS2
_cell_volume  92.15979566768053
_cell_formula_units_Z  1
loop_
  _symmetry_equiv_pos_site_id
 _symmetry_equiv_pos_as_xyz
 1  'x, y, z'
loop_
 _atom_site_type_symbol
 _atom_site_label
 _atom_site_symmetry_multiplicity
 _atom_site_fract_x
 _atom_site_fract_y
 _atom_site_fract_z
 _atom_site_fract_occupancy
 Pb  Pb1  1  0.00000  0.45069  0.00000  1
 S  S1  1  0.19597  0.95065  0.00000  1
 S  S2  1  0.80403  0.95065  0.00000  1
