CIF file written using JARVIS-Tools package.
data_H20PbC12O4
_symmetry_space_group_name_H-M  'P1'
_cell_length_a       3.75384
_cell_length_b       5.57863
_cell_length_c       14.892
_cell_angle_alpha    90.0691
_cell_angle_beta     95.9898
_cell_angle_gamma    96.7798

_symmetry_Int_Tables_number  1
_chemical_formula_structural  H20PbC12O4
_chemical_formula_sum  H20PbC2O4
_cell_volume  307.9565868838258
_cell_formula_units_Z  1
loop_
  _symmetry_equiv_pos_site_id
 _symmetry_equiv_pos_as_xyz
 1  'x, y, z'
loop_
 _atom_site_type_symbol
 _atom_site_label
 _atom_site_symmetry_multiplicity
 _atom_site_fract_x
 _atom_site_fract_y
 _atom_site_fract_z
 _atom_site_fract_occupancy
 C  C1  1  0.96627  0.03215  0.62654  1
 C  C2  1  0.47175  0.39909  0.25108  1
 C  C3  1  0.38401  0.46833  0.34286  1
 C  C4  1  0.16463  0.27043  0.48809  1
 C  C5  1  0.03189  0.02543  0.52702  1
 C  C6  1  0.21771  0.24161  0.38845  1
 C  C7  1  0.85383  0.78109  0.66323  1
 C  C8  1  0.78018  0.78593  0.76222  1
 C  C9  1  0.69561  0.53540  0.80249  1
 C  C10  1  0.62771  0.55768  0.90185  1
 C  C11  1  0.60938  0.32399  0.95336  1
 C  C12  1  0.82423  0.30451  0.02888  1
 H  H1  1  0.63425  0.55216  0.38135  1
 H  H2  1  0.42036  0.34525  0.52669  1
 H  H3  1  0.21301  0.11456  0.66716  1
 H  H4  1  0.75837  0.15124  0.63592  1
 H  H5  1  0.20768  0.61334  0.33454  1
 H  H6  1  0.55629  0.89322  0.76966  1
 H  H7  1  0.97206  0.40120  0.49689  1
 H  H8  1  0.40482  0.17695  0.92741  1
 H  H9  1  0.03277  0.44346  0.05979  1
 H  H10  1  0.46002  0.43462  0.76300  1
 H  H11  1  0.92266  0.42969  0.79708  1
 H  H12  1  0.61167  0.69575  0.62153  1
 H  H13  1  0.01629  0.88267  0.80305  1
 H  H14  1  0.06655  0.66444  0.65541  1
 H  H15  1  0.23058  0.89884  0.51799  1
 H  H16  1  0.95942  0.17194  0.35029  1
 H  H17  1  0.39048  0.09756  0.38173  1
 H  H18  1  0.37417  0.63606  0.90651  1
 H  H19  1  0.84446  0.68532  0.93673  1
 H  H20  1  0.78193  0.94845  0.48634  1
 O  O1  1  0.36294  0.20147  0.21363  1
 O  O2  1  0.22935  0.78806  0.06805  1
 O  O3  1  0.79745  0.79043  0.24380  1
 O  O4  1  0.70362  0.54183  0.20643  1
 Pb  Pb1  1  0.77038  0.96030  0.10688  1
