CIF file written using JARVIS-Tools package.
data_VPPb3O8
_symmetry_space_group_name_H-M  'R3m'
_cell_length_a       7.52015
_cell_length_b       7.52016
_cell_length_c       7.52015
_cell_angle_alpha    43.8477
_cell_angle_beta     43.8477
_cell_angle_gamma    43.8477

_symmetry_Int_Tables_number  160
_chemical_formula_structural  VPPb3O8
_chemical_formula_sum  VPPb3O8
_cell_volume  185.31211804306753
_cell_formula_units_Z  1
loop_
  _symmetry_equiv_pos_site_id
 _symmetry_equiv_pos_as_xyz
 1  'x, y, z'
loop_
 _atom_site_type_symbol
 _atom_site_label
 _atom_site_symmetry_multiplicity
 _atom_site_fract_x
 _atom_site_fract_y
 _atom_site_fract_z
 _atom_site_fract_occupancy
 O  O1  1  0.67291  0.67291  0.67291  1
 O  O2  1  0.32163  0.32163  0.32163  1
 O  O3  1  0.72234  0.26760  0.72234  1
 O  O4  1  0.72234  0.72234  0.26760  1
 O  O5  1  0.26760  0.72234  0.72234  1
 O  O6  1  0.26660  0.76943  0.26660  1
 O  O7  1  0.26660  0.26660  0.76943  1
 O  O8  1  0.76943  0.26660  0.26660  1
 P  P1  1  0.59661  0.59661  0.59661  1
 Pb  Pb1  1  0.78907  0.78907  0.78907  1
 Pb  Pb2  1  0.20413  0.20413  0.20413  1
 Pb  Pb3  1  0.99518  0.99518  0.99518  1
 V  V1  1  0.40554  0.40554  0.40554  1
