CIF file written using JARVIS-Tools package.
data_VCo3AsO8
_symmetry_space_group_name_H-M  'C2/m'
_cell_length_a       6.47519
_cell_length_b       6.47519
_cell_length_c       8.29177
_cell_angle_alpha    90.4144
_cell_angle_beta     90.4143
_cell_angle_gamma    53.8564

_symmetry_Int_Tables_number  12
_chemical_formula_structural  VCo3AsO8
_chemical_formula_sum  V2Co6As2O6
_cell_volume  280.7389681543998
_cell_formula_units_Z  2
loop_
  _symmetry_equiv_pos_site_id
 _symmetry_equiv_pos_as_xyz
 1  'x, y, z'
loop_
 _atom_site_type_symbol
 _atom_site_label
 _atom_site_symmetry_multiplicity
 _atom_site_fract_x
 _atom_site_fract_y
 _atom_site_fract_z
 _atom_site_fract_occupancy
 As  As1  1  0.13148  0.13148  0.61627  1
 As  As2  1  0.86852  0.86852  0.38373  1
 Co  Co1  1  0.50000  0.50000  0.50000  1
 Co  Co2  1  0.00000  0.00000  0.00000  1
 Co  Co3  1  0.88434  0.36783  0.24961  1
 Co  Co4  1  0.63217  0.11566  0.75039  1
 Co  Co5  1  0.11566  0.63217  0.75039  1
 Co  Co6  1  0.36783  0.88434  0.24961  1
 O  O1  1  0.37766  0.85788  0.00457  1
 O  O2  1  0.74586  0.74586  0.26177  1
 O  O3  1  0.25414  0.25414  0.73823  1
 O  O4  1  0.85788  0.37766  0.00457  1
 O  O5  1  0.24658  0.24658  0.22962  1
 O  O6  1  0.49764  0.49764  0.25321  1
 O  O7  1  0.50236  0.50236  0.74679  1
 O  O8  1  0.75342  0.75342  0.77038  1
 O  O9  1  0.62234  0.14212  0.99543  1
 O  O10  1  0.87985  0.36591  0.49767  1
 O  O11  1  0.63409  0.12015  0.50233  1
 O  O12  1  0.14212  0.62234  0.99543  1
 O  O13  1  0.00930  0.00930  0.74886  1
 O  O14  1  0.12015  0.63409  0.50233  1
 O  O15  1  0.36591  0.87985  0.49767  1
 O  O16  1  0.99070  0.99070  0.25114  1
 V  V1  1  0.37415  0.37415  0.11661  1
 V  V2  1  0.62585  0.62585  0.88339  1
