CIF file written using JARVIS-Tools package.
data_Sr4MnRuO8
_symmetry_space_group_name_H-M  'P4/mmm'
_cell_length_a       3.80105
_cell_length_b       3.80105
_cell_length_c       12.8329
_cell_angle_alpha    90
_cell_angle_beta     90
_cell_angle_gamma    90

_symmetry_Int_Tables_number  123
_chemical_formula_structural  Sr4MnRuO8
_chemical_formula_sum  Sr4MnRuO8
_cell_volume  185.40914093597058
_cell_formula_units_Z  1
loop_
  _symmetry_equiv_pos_site_id
 _symmetry_equiv_pos_as_xyz
 1  'x, y, z'
loop_
 _atom_site_type_symbol
 _atom_site_label
 _atom_site_symmetry_multiplicity
 _atom_site_fract_x
 _atom_site_fract_y
 _atom_site_fract_z
 _atom_site_fract_occupancy
 Mn  Mn1  1  0.00000  0.00000  0.00000  1
 O  O1  1  0.50000  0.00000  0.50000  1
 O  O2  1  0.00000  0.50000  0.00000  1
 O  O3  1  0.50000  0.00000  0.00000  1
 O  O4  1  0.00000  0.50000  0.50000  1
 O  O5  1  0.50000  0.50000  0.33643  1
 O  O6  1  0.00000  0.00000  0.84290  1
 O  O7  1  0.00000  0.00000  0.15710  1
 O  O8  1  0.50000  0.50000  0.66357  1
 Ru  Ru1  1  0.50000  0.50000  0.50000  1
 Sr  Sr1  1  0.50000  0.50000  0.14150  1
 Sr  Sr2  1  0.00000  0.00000  0.65319  1
 Sr  Sr3  1  0.00000  0.00000  0.34681  1
 Sr  Sr4  1  0.50000  0.50000  0.85850  1
