CIF file written using JARVIS-Tools package.
data_H11C15
_symmetry_space_group_name_H-M  'P-1'
_cell_length_a       5.6727
_cell_length_b       7.26764
_cell_length_c       11.7478
_cell_angle_alpha    96.1085
_cell_angle_beta     90.0751
_cell_angle_gamma    96.6158

_symmetry_Int_Tables_number  2
_chemical_formula_structural  H11C15
_chemical_formula_sum  H22C30
_cell_volume  478.32532945922475
_cell_formula_units_Z  2
loop_
  _symmetry_equiv_pos_site_id
 _symmetry_equiv_pos_as_xyz
 1  'x, y, z'
loop_
 _atom_site_type_symbol
 _atom_site_label
 _atom_site_symmetry_multiplicity
 _atom_site_fract_x
 _atom_site_fract_y
 _atom_site_fract_z
 _atom_site_fract_occupancy
 C  C1  1  0.99131  0.11128  0.74408  1
 C  C2  1  0.80478  0.84521  0.07127  1
 C  C3  1  0.82102  0.27674  0.90830  1
 C  C4  1  0.98619  0.74892  0.02355  1
 C  C5  1  0.01381  0.25108  0.97645  1
 C  C6  1  0.19522  0.15479  0.92873  1
 C  C7  1  0.23826  0.62457  0.63063  1
 C  C8  1  0.17898  0.72326  0.09170  1
 C  C9  1  0.76174  0.37543  0.36937  1
 C  C10  1  0.98893  0.04605  0.61960  1
 C  C11  1  0.71755  0.42315  0.25993  1
 C  C12  1  0.80880  0.20686  0.79290  1
 C  C13  1  0.50350  0.63579  0.79210  1
 C  C14  1  0.67739  0.74285  0.73626  1
 C  C15  1  0.32261  0.25715  0.26374  1
 C  C16  1  0.63425  0.79504  0.62679  1
 C  C17  1  0.36575  0.20496  0.37321  1
 C  C18  1  0.16335  0.13482  0.55371  1
 C  C19  1  0.83665  0.86518  0.44629  1
 C  C20  1  0.81518  0.91367  0.18697  1
 C  C21  1  0.01107  0.95395  0.38040  1
 C  C22  1  0.81959  0.90584  0.56527  1
 C  C23  1  0.18041  0.09416  0.43473  1
 C  C24  1  0.49650  0.36421  0.20790  1
 C  C25  1  0.19120  0.79314  0.20710  1
 C  C26  1  0.18482  0.08633  0.81303  1
 C  C27  1  0.00869  0.88872  0.25592  1
 C  C28  1  0.41166  0.73206  0.57469  1
 C  C29  1  0.58834  0.26794  0.42531  1
 C  C30  1  0.28245  0.57685  0.74007  1
 H  H1  1  0.32517  0.00934  0.77593  1
 H  H2  1  0.67483  0.99066  0.22407  1
 H  H3  1  0.34328  0.12968  0.98199  1
 H  H4  1  0.65672  0.87032  0.01801  1
 H  H5  1  0.98020  0.69516  0.93341  1
 H  H6  1  0.67985  0.35252  0.94533  1
 H  H7  1  0.32015  0.64748  0.05467  1
 H  H8  1  0.65929  0.22974  0.73978  1
 H  H9  1  0.34071  0.77026  0.26022  1
 H  H10  1  0.37126  0.77110  0.49042  1
 H  H11  1  0.06625  0.57940  0.58915  1
 H  H12  1  0.93375  0.42060  0.41085  1
 H  H13  1  0.14692  0.49296  0.78373  1
 H  H14  1  0.85308  0.50704  0.21627  1
 H  H15  1  0.54147  0.59697  0.87669  1
 H  H16  1  0.45853  0.40303  0.12331  1
 H  H17  1  0.84985  0.78509  0.77717  1
 H  H18  1  0.15015  0.21491  0.22283  1
 H  H19  1  0.28611  0.24669  0.59712  1
 H  H20  1  0.62874  0.22890  0.50958  1
 H  H21  1  0.01980  0.30484  0.06659  1
 H  H22  1  0.71389  0.75331  0.40288  1
