CIF file written using JARVIS-Tools package.
data_PdF3
_symmetry_space_group_name_H-M  'P-1'
_cell_length_a       5.04847
_cell_length_b       4.60039
_cell_length_c       3.21876
_cell_angle_alpha    110.955
_cell_angle_beta     72.2404
_cell_angle_gamma    130.519

_symmetry_Int_Tables_number  2
_chemical_formula_structural  PdF3
_chemical_formula_sum  PdF3
_cell_volume  52.79077317227595
_cell_formula_units_Z  1
loop_
  _symmetry_equiv_pos_site_id
 _symmetry_equiv_pos_as_xyz
 1  'x, y, z'
loop_
 _atom_site_type_symbol
 _atom_site_label
 _atom_site_symmetry_multiplicity
 _atom_site_fract_x
 _atom_site_fract_y
 _atom_site_fract_z
 _atom_site_fract_occupancy
 F  F1  1  0.93086  0.03651  0.94503  1
 F  F2  1  0.67836  0.40185  0.25195  1
 F  F3  1  0.30460  0.71920  0.59852  1
 Pd  Pd1  1  0.80461  0.21917  0.59848  1
