CIF file written using JARVIS-Tools package.
data_PbS
_symmetry_space_group_name_H-M  'P-1'
_cell_length_a       7.27384
_cell_length_b       7.31416
_cell_length_c       4.2434
_cell_angle_alpha    125.206
_cell_angle_beta     89.7741
_cell_angle_gamma    48.4985

_symmetry_Int_Tables_number  2
_chemical_formula_structural  PbS
_chemical_formula_sum  Pb2S2
_cell_volume  107.20889961192123
_cell_formula_units_Z  2
loop_
  _symmetry_equiv_pos_site_id
 _symmetry_equiv_pos_as_xyz
 1  'x, y, z'
loop_
 _atom_site_type_symbol
 _atom_site_label
 _atom_site_symmetry_multiplicity
 _atom_site_fract_x
 _atom_site_fract_y
 _atom_site_fract_z
 _atom_site_fract_occupancy
 Pb  Pb1  1  0.97811  -0.02194  0.01188  1
 Pb  Pb2  1  0.47811  0.97812  0.51188  1
 S  S1  1  0.47796  0.47833  0.01195  1
 S  S2  1  -0.02195  0.47825  0.51217  1
