CIF file written using JARVIS-Tools package.
data_H13C12
_symmetry_space_group_name_H-M  'P-1'
_cell_length_a       5.16036
_cell_length_b       7.64784
_cell_length_c       10.3012
_cell_angle_alpha    98.8992
_cell_angle_beta     96.0902
_cell_angle_gamma    101.461

_symmetry_Int_Tables_number  2
_chemical_formula_structural  H13C12
_chemical_formula_sum  H26C24
_cell_volume  389.69243689306774
_cell_formula_units_Z  2
loop_
  _symmetry_equiv_pos_site_id
 _symmetry_equiv_pos_as_xyz
 1  'x, y, z'
loop_
 _atom_site_type_symbol
 _atom_site_label
 _atom_site_symmetry_multiplicity
 _atom_site_fract_x
 _atom_site_fract_y
 _atom_site_fract_z
 _atom_site_fract_occupancy
 C  C1  1  0.28835  0.60279  0.86895  1
 C  C2  1  0.09594  0.72306  0.90981  1
 C  C3  1  0.71556  0.43498  0.28235  1
 C  C4  1  0.90406  0.27694  0.09019  1
 C  C5  1  0.15294  0.89981  0.85558  1
 C  C6  1  0.84706  0.10019  0.14442  1
 C  C7  1  0.14267  0.86160  0.70457  1
 C  C8  1  0.85733  0.13840  0.29543  1
 C  C9  1  0.33741  0.74263  0.66249  1
 C  C10  1  0.66259  0.25737  0.33751  1
 C  C11  1  0.28444  0.56502  0.71765  1
 C  C12  1  0.65417  0.29360  0.48606  1
 C  C13  1  0.74006  0.18089  0.56819  1
 C  C14  1  0.25994  0.81911  0.43181  1
 C  C15  1  0.70002  0.20196  0.70077  1
 C  C16  1  0.29998  0.79804  0.29923  1
 C  C17  1  0.44405  0.67286  0.24977  1
 C  C18  1  0.46813  0.44278  0.67117  1
 C  C19  1  0.53187  0.55722  0.32883  1
 C  C20  1  0.53454  0.43451  0.54065  1
 C  C21  1  0.46546  0.56549  0.45935  1
 C  C22  1  0.71165  0.39721  0.13105  1
 C  C23  1  0.55595  0.32714  0.75023  1
 C  C24  1  0.34583  0.70640  0.51394  1
 H  H1  1  0.92051  0.50882  0.32678  1
 H  H2  1  0.48819  0.66632  0.14841  1
 H  H3  1  0.45889  0.18119  0.29128  1
 H  H4  1  0.23432  0.47452  0.90545  1
 H  H5  1  0.49346  0.66946  0.91713  1
 H  H6  1  0.50654  0.33054  0.08287  1
 H  H7  1  0.89032  0.64865  0.87014  1
 H  H8  1  0.10968  0.35135  0.12986  1
 H  H9  1  0.10766  0.75011  0.01859  1
 H  H10  1  0.89234  0.24989  0.98141  1
 H  H11  1  0.35279  0.98135  0.90115  1
 H  H12  1  0.64721  0.01865  0.09885  1
 H  H13  1  0.00915  0.98280  0.88328  1
 H  H14  1  0.99085  0.01720  0.11672  1
 H  H15  1  0.19057  0.99107  0.66940  1
 H  H16  1  0.76568  0.52548  0.09455  1
 H  H17  1  0.93868  0.79147  0.65706  1
 H  H18  1  0.80943  0.00893  0.33060  1
 H  H19  1  0.22658  0.88409  0.23561  1
 H  H20  1  0.77342  0.11591  0.76439  1
 H  H21  1  0.16301  0.92573  0.47099  1
 H  H22  1  0.83699  0.07427  0.52901  1
 H  H23  1  0.51181  0.33368  0.85159  1
 H  H24  1  0.07949  0.49118  0.67322  1
 H  H25  1  0.54111  0.81881  0.70872  1
 H  H26  1  0.06132  0.20853  0.34294  1
