CIF file written using JARVIS-Tools package.
data_Pr5S8
_symmetry_space_group_name_H-M  'F-43m'
_cell_length_a       8.39129
_cell_length_b       8.39129
_cell_length_c       8.39129
_cell_angle_alpha    60
_cell_angle_beta     60
_cell_angle_gamma    60

_symmetry_Int_Tables_number  216
_chemical_formula_structural  Pr5S8
_chemical_formula_sum  Pr5S8
_cell_volume  417.80255078663515
_cell_formula_units_Z  1
loop_
  _symmetry_equiv_pos_site_id
 _symmetry_equiv_pos_as_xyz
 1  'x, y, z'
loop_
 _atom_site_type_symbol
 _atom_site_label
 _atom_site_symmetry_multiplicity
 _atom_site_fract_x
 _atom_site_fract_y
 _atom_site_fract_z
 _atom_site_fract_occupancy
 Pr  Pr1  1  0.61301  0.12900  0.12900  1
 Pr  Pr2  1  0.12900  0.61301  0.12900  1
 Pr  Pr3  1  0.12900  0.12900  0.61301  1
 Pr  Pr4  1  0.12900  0.12900  0.12900  1
 Pr  Pr5  1  0.75000  0.75000  0.75000  1
 S  S1  1  0.34933  0.88356  0.88356  1
 S  S2  1  0.88356  0.34933  0.88356  1
 S  S3  1  0.88356  0.88356  0.34933  1
 S  S4  1  0.88356  0.88356  0.88356  1
 S  S5  1  0.90318  0.36561  0.36561  1
 S  S6  1  0.36561  0.90318  0.36561  1
 S  S7  1  0.36561  0.36561  0.90318  1
 S  S8  1  0.36561  0.36561  0.36561  1
