CIF file written using JARVIS-Tools package.
data_H20C19O4
_symmetry_space_group_name_H-M  'P1'
_cell_length_a       5.13446
_cell_length_b       7.50909
_cell_length_c       9.83208
_cell_angle_alpha    77.6614
_cell_angle_beta     83.9837
_cell_angle_gamma    86.4364

_symmetry_Int_Tables_number  1
_chemical_formula_structural  H20C19O4
_chemical_formula_sum  H20C9O4
_cell_volume  367.9727909032697
_cell_formula_units_Z  1
loop_
  _symmetry_equiv_pos_site_id
 _symmetry_equiv_pos_as_xyz
 1  'x, y, z'
loop_
 _atom_site_type_symbol
 _atom_site_label
 _atom_site_symmetry_multiplicity
 _atom_site_fract_x
 _atom_site_fract_y
 _atom_site_fract_z
 _atom_site_fract_occupancy
 C  C1  1  0.76760  0.54169  0.64941  1
 C  C2  1  0.92066  0.27840  0.83670  1
 C  C3  1  0.89212  0.08328  0.91751  1
 C  C4  1  0.07567  0.03011  0.03260  1
 C  C5  1  0.27880  0.25844  0.49029  1
 C  C6  1  0.28629  0.08640  0.57905  1
 C  C7  1  0.91926  0.00201  0.47638  1
 C  C8  1  0.37555  0.40782  0.10120  1
 C  C9  1  0.73126  0.34534  0.72754  1
 C  C10  1  0.09116  0.30526  0.39406  1
 C  C11  1  0.04970  0.83711  0.12177  1
 C  C12  1  0.22979  0.80244  0.23733  1
 C  C13  1  0.23966  0.63769  0.32228  1
 C  C14  1  0.06837  0.49305  0.29887  1
 C  C15  1  0.10608  0.48706  0.13910  1
 C  C16  1  0.35385  0.68948  0.95321  1
 C  C17  1  0.91073  0.17442  0.38886  1
 C  C18  1  0.09322  0.67746  0.04088  1
 C  C19  1  0.10764  0.95708  0.57224  1
 H  H1  1  0.96068  0.39856  0.11713  1
 H  H2  1  0.77613  0.90330  0.47043  1
 H  H3  1  0.96333  0.55742  0.59269  1
 H  H4  1  0.62110  0.58348  0.57352  1
 H  H5  1  0.74344  0.63590  0.72136  1
 H  H6  1  0.75498  0.25010  0.65538  1
 H  H7  1  0.53109  0.32733  0.78013  1
 H  H8  1  0.92365  0.99482  0.84050  1
 H  H9  1  0.27892  0.05017  0.98736  1
 H  H10  1  0.94005  0.68641  0.96934  1
 H  H11  1  0.42311  0.35500  0.49780  1
 H  H12  1  0.03650  0.12294  0.10540  1
 H  H13  1  0.11571  0.82308  0.64158  1
 H  H14  1  0.43169  0.05252  0.65434  1
 H  H15  1  0.36184  0.61072  0.40897  1
 H  H16  1  0.34293  0.91472  0.25108  1
 H  H17  1  0.84464  0.82454  0.17022  1
 H  H18  1  0.86143  0.54240  0.31464  1
 H  H19  1  0.75970  0.20755  0.31644  1
 H  H20  1  0.68571  0.06836  0.96041  1
 O  O1  1  0.43739  0.80974  0.85946  1
 O  O2  1  0.48160  0.26294  0.14886  1
 O  O3  1  0.51329  0.53336  0.99679  1
 O  O4  1  0.08937  0.37619  0.85897  1
