CIF file written using JARVIS-Tools package.
data_RbCoNiF6
_symmetry_space_group_name_H-M  'Imma'
_cell_length_a       7.06188
_cell_length_b       7.06188
_cell_length_c       7.06188
_cell_angle_alpha    119.864
_cell_angle_beta     120.253
_cell_angle_gamma    89.8989

_symmetry_Int_Tables_number  74
_chemical_formula_structural  RbCoNiF6
_chemical_formula_sum  Rb2Co2Ni2F2
_cell_volume  248.8025339508681
_cell_formula_units_Z  2
loop_
  _symmetry_equiv_pos_site_id
 _symmetry_equiv_pos_as_xyz
 1  'x, y, z'
loop_
 _atom_site_type_symbol
 _atom_site_label
 _atom_site_symmetry_multiplicity
 _atom_site_fract_x
 _atom_site_fract_y
 _atom_site_fract_z
 _atom_site_fract_occupancy
 Co  Co1  1  0.00000  0.00000  0.00000  1
 Co  Co2  1  0.50000  0.00000  0.50000  1
 F  F1  1  0.08571  0.33571  0.75000  1
 F  F2  1  0.31461  0.06461  0.25000  1
 F  F3  1  0.91429  0.66429  0.25000  1
 F  F4  1  0.66514  0.93444  0.34926  1
 F  F5  1  0.91482  0.06556  0.23070  1
 F  F6  1  0.33486  0.68412  0.26930  1
 F  F7  1  0.91482  0.68412  0.84926  1
 F  F8  1  0.08518  0.31588  0.15074  1
 F  F9  1  0.33486  0.06556  0.65074  1
 F  F10  1  0.66514  0.31588  0.73070  1
 F  F11  1  0.08518  0.93444  0.76930  1
 F  F12  1  0.68539  0.93539  0.75000  1
 Ni  Ni1  1  0.00000  0.50000  0.00000  1
 Ni  Ni2  1  0.00000  -0.00000  0.50000  1
 Rb  Rb1  1  0.62239  0.37239  0.25000  1
 Rb  Rb2  1  0.37761  0.62761  0.75000  1
