CIF file written using JARVIS-Tools package.
data_LiMgAs
_symmetry_space_group_name_H-M  'Amm2'
_cell_length_a       4.73525
_cell_length_b       4.73701
_cell_length_c       3.09113
_cell_angle_alpha    90
_cell_angle_beta     90
_cell_angle_gamma    116.909

_symmetry_Int_Tables_number  38
_chemical_formula_structural  LiMgAs
_chemical_formula_sum  LiMgAs
_cell_volume  61.829766160997615
_cell_formula_units_Z  1
loop_
  _symmetry_equiv_pos_site_id
 _symmetry_equiv_pos_as_xyz
 1  'x, y, z'
loop_
 _atom_site_type_symbol
 _atom_site_label
 _atom_site_symmetry_multiplicity
 _atom_site_fract_x
 _atom_site_fract_y
 _atom_site_fract_z
 _atom_site_fract_occupancy
 As  As1  1  0.43559  0.09303  0.00000  1
 Li  Li1  1  0.10785  0.42044  0.00000  1
 Mg  Mg1  1  -0.22628  -0.24522  0.00000  1
