CIF file written using JARVIS-Tools package.
data_NiGeMo
_symmetry_space_group_name_H-M  'Amm2'
_cell_length_a       4.82138
_cell_length_b       4.82139
_cell_length_c       7.82256
_cell_angle_alpha    90
_cell_angle_beta     90
_cell_angle_gamma    116.687

_symmetry_Int_Tables_number  38
_chemical_formula_structural  NiGeMo
_chemical_formula_sum  Ni4Ge4Mo4
_cell_volume  162.46974522047626
_cell_formula_units_Z  4
loop_
  _symmetry_equiv_pos_site_id
 _symmetry_equiv_pos_as_xyz
 1  'x, y, z'
loop_
 _atom_site_type_symbol
 _atom_site_label
 _atom_site_symmetry_multiplicity
 _atom_site_fract_x
 _atom_site_fract_y
 _atom_site_fract_z
 _atom_site_fract_occupancy
 Ge  Ge1  1  0.98077  0.01923  0.27653  1
 Ge  Ge2  1  0.98077  0.01923  0.72347  1
 Ge  Ge3  1  0.84746  0.63652  0.00000  1
 Ge  Ge4  1  0.36348  0.15254  0.00000  1
 Mo  Mo1  1  0.34148  0.65852  0.19135  1
 Mo  Mo2  1  0.65550  0.34450  0.32098  1
 Mo  Mo3  1  0.65550  0.34450  0.67902  1
 Mo  Mo4  1  0.34148  0.65852  0.80865  1
 Ni  Ni1  1  0.85800  0.14200  0.00000  1
 Ni  Ni2  1  0.17538  0.36434  0.50000  1
 Ni  Ni3  1  0.63566  0.82462  0.50000  1
 Ni  Ni4  1  0.16416  0.83584  0.50000  1
