CIF file written using JARVIS-Tools package.
data_SnH4C2Cl2
_symmetry_space_group_name_H-M  'P1'
_cell_length_a       5.34411
_cell_length_b       5.6891
_cell_length_c       9.94921
_cell_angle_alpha    100.066
_cell_angle_beta     90.9668
_cell_angle_gamma    116.894

_symmetry_Int_Tables_number  1
_chemical_formula_structural  SnH4C2Cl2
_chemical_formula_sum  Sn2H8C4Cl4
_cell_volume  264.03123255577833
_cell_formula_units_Z  2
loop_
  _symmetry_equiv_pos_site_id
 _symmetry_equiv_pos_as_xyz
 1  'x, y, z'
loop_
 _atom_site_type_symbol
 _atom_site_label
 _atom_site_symmetry_multiplicity
 _atom_site_fract_x
 _atom_site_fract_y
 _atom_site_fract_z
 _atom_site_fract_occupancy
 C  C1  1  0.13335  0.07795  0.93038  1
 C  C2  1  0.89607  0.00659  0.02043  1
 C  C3  1  0.09686  0.93445  0.51319  1
 C  C4  1  0.92891  0.03321  0.43815  1
 Cl  Cl1  1  0.46452  0.73316  0.68701  1
 Cl  Cl2  1  0.55464  0.36954  0.27982  1
 Cl  Cl3  1  0.20292  0.68794  0.17360  1
 Cl  Cl4  1  0.81509  0.40544  0.75130  1
 H  H1  1  0.97418  0.24076  0.48196  1
 H  H2  1  0.24951  0.29382  0.93126  1
 H  H3  1  0.07254  0.73701  0.46219  1
 H  H4  1  0.32214  0.07783  0.53542  1
 H  H5  1  0.28137  -0.00006  0.95059  1
 H  H6  1  0.79091  0.13358  0.02444  1
 H  H7  1  0.70078  0.90148  0.42279  1
 H  H8  1  0.73875  0.79295  0.99709  1
 Sn  Sn1  1  0.05991  0.04220  0.23039  1
 Sn  Sn2  1  0.96990  0.86646  0.71773  1
