CIF file written using JARVIS-Tools package.
data_CdH20C12O4
_symmetry_space_group_name_H-M  'P-1'
_cell_length_a       3.8039
_cell_length_b       4.81532
_cell_length_c       17.6145
_cell_angle_alpha    86.2221
_cell_angle_beta     85.0803
_cell_angle_gamma    64.1113

_symmetry_Int_Tables_number  2
_chemical_formula_structural  CdH20C12O4
_chemical_formula_sum  CdH20C2O4
_cell_volume  289.0512605849228
_cell_formula_units_Z  1
loop_
  _symmetry_equiv_pos_site_id
 _symmetry_equiv_pos_as_xyz
 1  'x, y, z'
loop_
 _atom_site_type_symbol
 _atom_site_label
 _atom_site_symmetry_multiplicity
 _atom_site_fract_x
 _atom_site_fract_y
 _atom_site_fract_z
 _atom_site_fract_occupancy
 C  C1  1  0.51478  0.61948  0.61820  1
 C  C2  1  0.32946  0.55368  0.26046  1
 C  C3  1  0.25346  0.70620  0.33665  1
 C  C4  1  0.38327  0.66098  0.47697  1
 C  C5  1  0.58872  0.44954  0.54386  1
 C  C6  1  0.45825  0.48998  0.40276  1
 C  C7  1  0.72083  0.40805  0.68505  1
 C  C8  1  0.64719  0.57796  0.75938  1
 C  C9  1  0.85285  0.36643  0.82624  1
 C  C10  1  0.77844  0.53733  0.90045  1
 C  C11  1  -0.01646  0.32100  0.96652  1
 C  C12  1  0.90779  0.47343  0.04272  1
 Cd  Cd1  1  0.61868  0.01355  0.15159  1
 H  H1  1  0.48069  0.84628  0.46808  1
 H  H2  1  0.33151  0.90111  0.32865  1
 H  H3  1  0.61207  0.80481  0.60922  1
 H  H4  1  0.93331  0.81526  0.34852  1
 H  H5  1  0.74488  0.76305  0.75041  1
 H  H6  1  0.06578  0.77851  0.49171  1
 H  H7  1  0.35977  0.30588  0.41127  1
 H  H8  1  0.30366  0.21200  0.95460  1
 H  H9  1  0.75523  0.18124  0.83517  1
 H  H10  1  0.17027  0.24875  0.81144  1
 H  H11  1  0.62341  0.22281  0.69405  1
 H  H12  1  0.19740  0.73665  0.63302  1
 H  H13  1  0.03819  0.29078  0.67021  1
 H  H14  1  0.90611  0.33220  0.52907  1
 H  H15  1  0.90555  0.12607  0.97453  1
 H  H16  1  0.77515  0.37238  0.38782  1
 H  H17  1  0.46162  0.65503  0.91546  1
 H  H18  1  -0.12295  0.72135  0.89190  1
 H  H19  1  0.32985  0.69536  0.77421  1
 H  H20  1  0.49113  0.26439  0.55281  1
 O  O1  1  0.45820  0.26187  0.26068  1
 O  O2  1  0.98047  0.30257  0.10410  1
 O  O3  1  0.25691  0.72447  0.19907  1
 O  O4  1  0.77907  0.76523  0.04251  1
