CIF file written using JARVIS-Tools package.
data_SnH4C2F2
_symmetry_space_group_name_H-M  'P1'
_cell_length_a       4.32517
_cell_length_b       6.0076
_cell_length_c       7.28035
_cell_angle_alpha    74.8675
_cell_angle_beta     77.4205
_cell_angle_gamma    73.2626

_symmetry_Int_Tables_number  1
_chemical_formula_structural  SnH4C2F2
_chemical_formula_sum  Sn2H8C4F4
_cell_volume  172.78230547519425
_cell_formula_units_Z  2
loop_
  _symmetry_equiv_pos_site_id
 _symmetry_equiv_pos_as_xyz
 1  'x, y, z'
loop_
 _atom_site_type_symbol
 _atom_site_label
 _atom_site_symmetry_multiplicity
 _atom_site_fract_x
 _atom_site_fract_y
 _atom_site_fract_z
 _atom_site_fract_occupancy
 C  C1  1  0.21938  0.85288  0.80918  1
 C  C2  1  0.37808  0.90209  0.60298  1
 C  C3  1  0.90397  0.41270  0.11719  1
 C  C4  1  0.68964  0.33645  0.30295  1
 F  F1  1  0.62204  0.03023  0.06235  1
 F  F2  1  -0.01541  0.51946  0.55195  1
 F  F3  1  0.15175  0.83472  0.24220  1
 F  F4  1  0.46272  0.33657  0.74698  1
 H  H1  1  0.23373  0.05553  0.51391  1
 H  H2  1  0.96865  0.83779  0.82463  1
 H  H3  1  0.62639  0.92271  0.58527  1
 H  H4  1  0.76656  0.53938  0.00768  1
 H  H5  1  0.82781  0.19719  0.40558  1
 H  H6  1  0.49403  0.27081  0.27958  1
 H  H7  1  0.09330  0.48873  0.13607  1
 H  H8  1  0.35650  0.69045  0.89427  1
 Sn  Sn1  1  0.15968  0.10916  0.98450  1
 Sn  Sn2  1  0.44670  0.59557  0.47922  1
