CIF file written using JARVIS-Tools package.
data_SnH12C6F2
_symmetry_space_group_name_H-M  'P1'
_cell_length_a       4.28776
_cell_length_b       4.64641
_cell_length_c       19.5403
_cell_angle_alpha    92.3127
_cell_angle_beta     98.1311
_cell_angle_gamma    113.798

_symmetry_Int_Tables_number  1
_chemical_formula_structural  SnH12C6F2
_chemical_formula_sum  Sn2H24C2F4
_cell_volume  350.57003499393073
_cell_formula_units_Z  2
loop_
  _symmetry_equiv_pos_site_id
 _symmetry_equiv_pos_as_xyz
 1  'x, y, z'
loop_
 _atom_site_type_symbol
 _atom_site_label
 _atom_site_symmetry_multiplicity
 _atom_site_fract_x
 _atom_site_fract_y
 _atom_site_fract_z
 _atom_site_fract_occupancy
 C  C1  1  0.56087  0.81080  0.92027  1
 C  C2  1  0.52053  0.39664  0.29887  1
 C  C3  1  0.74101  0.68569  0.87319  1
 C  C4  1  0.50595  0.50387  0.80461  1
 C  C5  1  0.12783  0.72885  0.63170  1
 C  C6  1  0.84085  0.94078  0.13257  1
 C  C7  1  0.40786  0.70693  0.75360  1
 C  C8  1  0.21596  0.52118  0.68257  1
 C  C9  1  0.14389  0.21190  0.17845  1
 C  C10  1  0.21262  0.13036  0.25275  1
 C  C11  1  0.89232  0.58617  0.41905  1
 C  C12  1  0.59008  0.31469  0.37310  1
 F  F1  1  0.33790  0.12864  0.02208  1
 F  F2  1  0.99877  0.49713  0.02646  1
 F  F3  1  0.73346  0.03214  0.52910  1
 F  F4  1  0.39213  0.39976  0.52710  1
 H  H1  1  0.64597  0.90790  0.74599  1
 H  H2  1  0.24842  0.81070  0.77530  1
 H  H3  1  0.87229  0.71808  0.13346  1
 H  H4  1  0.58996  0.90163  0.14706  1
 H  H5  1  0.09405  0.42667  0.18012  1
 H  H6  1  0.35867  0.93928  0.62607  1
 H  H7  1  0.93405  0.80611  0.64641  1
 H  H8  1  0.49016  0.99447  0.89858  1
 H  H9  1  0.32549  0.61986  0.93087  1
 H  H10  1  0.83406  0.52698  0.90075  1
 H  H11  1  0.97036  0.88102  0.86114  1
 H  H12  1  0.35388  0.25172  0.39600  1
 H  H13  1  0.14290  0.62889  0.40395  1
 H  H14  1  0.85748  0.80743  0.41878  1
 H  H15  1  0.38029  0.27365  0.15564  1
 H  H16  1  0.75387  0.45569  0.27492  1
 H  H17  1  0.26002  0.91400  0.25059  1
 H  H18  1  0.97908  0.07183  0.27659  1
 H  H19  1  0.64140  0.10068  0.37121  1
 H  H20  1  0.26799  0.31487  0.81615  1
 H  H21  1  0.64000  0.38378  0.77877  1
 H  H22  1  0.97821  0.31877  0.68947  1
 H  H23  1  0.37776  0.41907  0.66129  1
 H  H24  1  0.47276  0.61279  0.30116  1
 Sn  Sn1  1  0.80810  0.01768  0.02462  1
 Sn  Sn2  1  0.93266  0.50780  0.52690  1
