CIF file written using JARVIS-Tools package.
data_H12PbC8O4
_symmetry_space_group_name_H-M  'P-1'
_cell_length_a       3.93822
_cell_length_b       4.5536
_cell_length_c       12.9854
_cell_angle_alpha    92.5856
_cell_angle_beta     95.904
_cell_angle_gamma    105.815

_symmetry_Int_Tables_number  2
_chemical_formula_structural  H12PbC8O4
_chemical_formula_sum  H2PbC8O4
_cell_volume  222.21256110251156
_cell_formula_units_Z  1
loop_
  _symmetry_equiv_pos_site_id
 _symmetry_equiv_pos_as_xyz
 1  'x, y, z'
loop_
 _atom_site_type_symbol
 _atom_site_label
 _atom_site_symmetry_multiplicity
 _atom_site_fract_x
 _atom_site_fract_y
 _atom_site_fract_z
 _atom_site_fract_occupancy
 C  C1  1  0.59898  0.59080  -0.00537  1
 C  C2  1  0.47730  0.67270  0.18344  1
 C  C3  1  0.36919  0.50632  0.27994  1
 C  C4  1  0.35772  0.72199  0.37249  1
 C  C5  1  0.24968  0.55558  0.46899  1
 C  C6  1  0.25068  0.78003  0.56018  1
 C  C7  1  0.12808  0.63734  0.65781  1
 C  C8  1  0.47633  0.44820  0.09226  1
 H  H1  1  0.62121  0.88985  0.39176  1
 H  H2  1  0.07179  0.92286  0.53890  1
 H  H3  1  0.21362  0.28314  0.07245  1
 H  H4  1  0.55516  0.37126  0.30229  1
 H  H5  1  0.10569  0.33849  0.26067  1
 H  H6  1  0.17171  0.85702  0.35015  1
 H  H7  1  0.98371  0.39259  0.45090  1
 H  H8  1  0.74327  0.83568  0.20153  1
 H  H9  1  0.29374  0.80908  0.16074  1
 H  H10  1  0.51340  0.94508  0.58000  1
 H  H11  1  0.65521  0.30538  0.11357  1
 H  H12  1  0.43326  0.41920  0.49167  1
 O  O1  1  0.92322  0.36913  0.65239  1
 O  O2  1  0.80398  0.85896  0.00003  1
 O  O3  1  0.49709  0.42291  0.90714  1
 O  O4  1  0.22990  0.80520  0.74531  1
 Pb  Pb1  1  0.86354  0.11410  0.82622  1
