CIF file written using JARVIS-Tools package.
data_NaTaWO6
_symmetry_space_group_name_H-M  'Imma'
_cell_length_a       7.3684
_cell_length_b       7.3684
_cell_length_c       7.3684
_cell_angle_alpha    120.058
_cell_angle_beta     119.894
_cell_angle_gamma    90.0415

_symmetry_Int_Tables_number  74
_chemical_formula_structural  NaTaWO6
_chemical_formula_sum  Na2Ta2W2O2
_cell_volume  282.9827856948766
_cell_formula_units_Z  2
loop_
  _symmetry_equiv_pos_site_id
 _symmetry_equiv_pos_as_xyz
 1  'x, y, z'
loop_
 _atom_site_type_symbol
 _atom_site_label
 _atom_site_symmetry_multiplicity
 _atom_site_fract_x
 _atom_site_fract_y
 _atom_site_fract_z
 _atom_site_fract_occupancy
 Na  Na1  1  -0.00000  0.50000  0.50000  1
 Na  Na2  1  0.50000  0.50000  -0.00000  1
 O  O1  1  0.31687  0.06415  0.62454  1
 O  O2  1  0.31687  0.69233  0.25272  1
 O  O3  1  0.06039  0.93585  0.75272  1
 O  O4  1  0.93961  0.69233  0.87546  1
 O  O5  1  0.30544  0.05544  0.25000  1
 O  O6  1  0.92800  0.67800  0.25000  1
 O  O7  1  0.68313  0.93585  0.37546  1
 O  O8  1  0.68313  0.30767  0.74728  1
 O  O9  1  0.69456  0.94456  0.75000  1
 O  O10  1  0.06039  0.30767  0.12454  1
 O  O11  1  0.93961  0.06415  0.24728  1
 O  O12  1  0.07200  0.32200  0.75000  1
 Ta  Ta1  1  0.00000  0.00000  0.50000  1
 Ta  Ta2  1  -0.00000  0.50000  -0.00000  1
 W  W1  1  0.00000  0.00000  0.00000  1
 W  W2  1  0.50000  0.00000  0.50000  1
