CIF file written using JARVIS-Tools package.
data_Mn8Nb3Al
_symmetry_space_group_name_H-M  'P3m1'
_cell_length_a       4.75669
_cell_length_b       4.75668
_cell_length_c       7.86468
_cell_angle_alpha    90
_cell_angle_beta     90
_cell_angle_gamma    120

_symmetry_Int_Tables_number  156
_chemical_formula_structural  Mn8Nb3Al
_chemical_formula_sum  Mn8Nb3Al
_cell_volume  154.10647315208985
_cell_formula_units_Z  1
loop_
  _symmetry_equiv_pos_site_id
 _symmetry_equiv_pos_as_xyz
 1  'x, y, z'
loop_
 _atom_site_type_symbol
 _atom_site_label
 _atom_site_symmetry_multiplicity
 _atom_site_fract_x
 _atom_site_fract_y
 _atom_site_fract_z
 _atom_site_fract_occupancy
 Al  Al1  1  0.00000  0.00000  0.56030  1
 Mn  Mn1  1  0.33333  0.66667  0.50086  1
 Mn  Mn2  1  0.33333  0.66667  0.01094  1
 Mn  Mn3  1  0.50409  0.00817  0.74814  1
 Mn  Mn4  1  0.50409  0.49591  0.74814  1
 Mn  Mn5  1  0.99183  0.49591  0.74814  1
 Mn  Mn6  1  0.15987  0.31973  0.25152  1
 Mn  Mn7  1  0.15987  0.84013  0.25152  1
 Mn  Mn8  1  0.68027  0.84013  0.25152  1
 Nb  Nb1  1  0.66667  0.33333  0.44251  1
 Nb  Nb2  1  0.66667  0.33333  0.06464  1
 Nb  Nb3  1  0.00000  0.00000  0.92174  1
