CIF file written using JARVIS-Tools package.
data_Na4Al3Si3ClO12
_symmetry_space_group_name_H-M  'C2'
_cell_length_a       7.6915
_cell_length_b       7.6915
_cell_length_c       8.8347
_cell_angle_alpha    55.0872
_cell_angle_beta     55.0872
_cell_angle_gamma    70.9017

_symmetry_Int_Tables_number  5
_chemical_formula_structural  Na4Al3Si3ClO12
_chemical_formula_sum  Na4Al3Si3ClO2
_cell_volume  351.45317403481056
_cell_formula_units_Z  1
loop_
  _symmetry_equiv_pos_site_id
 _symmetry_equiv_pos_as_xyz
 1  'x, y, z'
loop_
 _atom_site_type_symbol
 _atom_site_label
 _atom_site_symmetry_multiplicity
 _atom_site_fract_x
 _atom_site_fract_y
 _atom_site_fract_z
 _atom_site_fract_occupancy
 Al  Al1  1  0.74867  0.25133  0.50000  1
 Al  Al2  1  0.24900  0.25215  0.25859  1
 Al  Al3  1  0.74785  0.75100  0.74141  1
 Cl  Cl1  1  0.99965  0.00035  -0.00000  1
 Na  Na1  1  0.64495  -0.00100  0.34783  1
 Na  Na2  1  0.34814  -0.00387  0.00398  1
 Na  Na3  1  0.00387  0.65186  -0.00398  1
 Na  Na4  1  0.00100  0.35505  0.65217  1
 O  O1  1  0.69670  0.56394  0.71574  1
 O  O2  1  0.43606  0.30330  0.28426  1
 O  O3  1  0.41498  0.69634  0.58804  1
 O  O4  1  0.30183  0.98800  0.30162  1
 O  O5  1  0.70925  0.00231  0.56486  1
 O  O6  1  0.55164  0.28973  0.71979  1
 O  O7  1  0.99769  0.29075  0.43514  1
 O  O8  1  0.28940  0.42305  0.99706  1
 O  O9  1  0.71027  0.44836  0.28021  1
 O  O10  1  0.57695  0.71060  0.00294  1
 O  O11  1  0.01200  0.69817  0.69838  1
 O  O12  1  0.30366  0.58502  0.41196  1
 Si  Si1  1  0.51173  0.50891  0.24131  1
 Si  Si2  1  0.25363  0.74637  0.50000  1
 Si  Si3  1  0.49109  0.48827  0.75869  1
