CIF file written using JARVIS-Tools package.
data_NaSrAs
_symmetry_space_group_name_H-M  'Pmmm'
_cell_length_a       5.61591
_cell_length_b       6.01861
_cell_length_c       3.67694
_cell_angle_alpha    90
_cell_angle_beta     90
_cell_angle_gamma    90.0027

_symmetry_Int_Tables_number  47
_chemical_formula_structural  NaSrAs
_chemical_formula_sum  NaSrAs
_cell_volume  124.28037916410356
_cell_formula_units_Z  1
loop_
  _symmetry_equiv_pos_site_id
 _symmetry_equiv_pos_as_xyz
 1  'x, y, z'
loop_
 _atom_site_type_symbol
 _atom_site_label
 _atom_site_symmetry_multiplicity
 _atom_site_fract_x
 _atom_site_fract_y
 _atom_site_fract_z
 _atom_site_fract_occupancy
 As  As1  1  -0.07611  -0.05183  0.00000  1
 Na  Na1  1  0.42391  -0.05186  0.00000  1
 Sr  Sr1  1  -0.07577  0.44816  0.00000  1
