CIF file written using JARVIS-Tools package.
data_H11C15
_symmetry_space_group_name_H-M  'P-1'
_cell_length_a       5.95927
_cell_length_b       8.28794
_cell_length_c       10.5212
_cell_angle_alpha    105.317
_cell_angle_beta     92.4371
_cell_angle_gamma    92.3074

_symmetry_Int_Tables_number  2
_chemical_formula_structural  H11C15
_chemical_formula_sum  H22C30
_cell_volume  500.015728176591
_cell_formula_units_Z  2
loop_
  _symmetry_equiv_pos_site_id
 _symmetry_equiv_pos_as_xyz
 1  'x, y, z'
loop_
 _atom_site_type_symbol
 _atom_site_label
 _atom_site_symmetry_multiplicity
 _atom_site_fract_x
 _atom_site_fract_y
 _atom_site_fract_z
 _atom_site_fract_occupancy
 C  C1  1  0.91093  0.75838  0.14937  1
 C  C2  1  0.96231  0.40564  0.70346  1
 C  C3  1  0.65024  0.56438  0.21313  1
 C  C4  1  0.17862  0.47916  0.70901  1
 C  C5  1  0.82138  0.52084  0.29099  1
 C  C6  1  0.03769  0.59436  0.29654  1
 C  C7  1  0.34150  0.20821  0.29039  1
 C  C8  1  0.34976  0.43562  0.78687  1
 C  C9  1  0.65850  0.79179  0.70961  1
 C  C10  1  0.95751  0.88612  0.07643  1
 C  C11  1  0.59383  0.79571  0.58151  1
 C  C12  1  0.69429  0.68284  0.14366  1
 C  C13  1  0.61426  0.14290  0.44288  1
 C  C14  1  0.75555  0.08452  0.34040  1
 C  C15  1  0.24445  0.91548  0.65960  1
 C  C16  1  0.69249  0.08887  0.21101  1
 C  C17  1  0.30751  0.91113  0.78899  1
 C  C18  1  0.10877  0.85199  0.97588  1
 C  C19  1  0.89123  0.14801  0.02412  1
 C  C20  1  0.91738  0.28881  0.77484  1
 C  C21  1  0.04249  0.11388  0.92357  1
 C  C22  1  0.84665  0.03797  0.10203  1
 C  C23  1  0.15335  0.96203  0.89797  1
 C  C24  1  0.38574  0.85710  0.55712  1
 C  C25  1  0.30571  0.31716  0.85634  1
 C  C26  1  0.08262  0.71119  0.22516  1
 C  C27  1  0.08907  0.24162  0.85063  1
 C  C28  1  0.48412  0.15184  0.18792  1
 C  C29  1  0.51588  0.84816  0.81208  1
 C  C30  1  0.40617  0.20429  0.41849  1
 H  H1  1  0.25076  0.77063  0.23072  1
 H  H2  1  0.74924  0.22937  0.76928  1
 H  H3  1  0.17158  0.56223  0.35792  1
 H  H4  1  0.82842  0.43777  0.64208  1
 H  H5  1  0.21443  0.57023  0.65343  1
 H  H6  1  0.48195  0.50550  0.20661  1
 H  H7  1  0.51805  0.49450  0.79339  1
 H  H8  1  0.55957  0.71731  0.08405  1
 H  H9  1  0.44043  0.28269  0.91595  1
 H  H10  1  0.43213  0.15518  0.08826  1
 H  H11  1  0.17946  0.25457  0.26938  1
 H  H12  1  0.82054  0.74543  0.73062  1
 H  H13  1  0.29544  0.24768  0.49896  1
 H  H14  1  0.70456  0.75232  0.50104  1
 H  H15  1  0.66566  0.13864  0.54228  1
 H  H16  1  0.33434  0.86136  0.45772  1
 H  H17  1  0.91772  0.03764  0.36092  1
 H  H18  1  0.08228  0.96236  0.63908  1
 H  H19  1  0.18659  0.73150  0.95328  1
 H  H20  1  0.56787  0.84482  0.91174  1
 H  H21  1  0.78557  0.42977  0.34657  1
 H  H22  1  0.81341  0.26850  0.04672  1
