CIF file written using JARVIS-Tools package.
data_Na3HoTi2Nb2O12
_symmetry_space_group_name_H-M  'P1'
_cell_length_a       5.40543
_cell_length_b       5.55565
_cell_length_c       7.73365
_cell_angle_alpha    89.9801
_cell_angle_beta     89.9471
_cell_angle_gamma    89.3796

_symmetry_Int_Tables_number  1
_chemical_formula_structural  Na3HoTi2Nb2O12
_chemical_formula_sum  Na3HoTi2Nb2O2
_cell_volume  232.23327720396097
_cell_formula_units_Z  1
loop_
  _symmetry_equiv_pos_site_id
 _symmetry_equiv_pos_as_xyz
 1  'x, y, z'
loop_
 _atom_site_type_symbol
 _atom_site_label
 _atom_site_symmetry_multiplicity
 _atom_site_fract_x
 _atom_site_fract_y
 _atom_site_fract_z
 _atom_site_fract_occupancy
 Ho  Ho1  1  0.98996  0.93331  0.25041  1
 Na  Na1  1  0.49622  0.53317  0.74864  1
 Na  Na2  1  -0.00355  0.01078  0.75168  1
 Na  Na3  1  0.51174  0.45815  0.25035  1
 Nb  Nb1  1  0.49395  0.99421  0.50979  1
 Nb  Nb2  1  0.00571  0.47864  0.98997  1
 O  O1  1  0.56812  0.97735  0.75398  1
 O  O2  1  0.19381  0.80783  0.52369  1
 O  O3  1  0.39888  0.03535  0.24705  1
 O  O4  1  0.08119  0.52949  0.25222  1
 O  O5  1  0.91903  0.49282  0.74580  1
 O  O6  1  0.29906  0.30944  0.53971  1
 O  O7  1  0.80540  0.20225  0.05311  1
 O  O8  1  0.71366  0.72920  0.05498  1
 O  O9  1  0.19853  0.80859  0.97744  1
 O  O10  1  0.71763  0.72705  0.44441  1
 O  O11  1  0.80859  0.20706  0.44718  1
 O  O12  1  0.30512  0.30179  0.95712  1
 Ti  Ti1  1  0.00672  0.47863  0.49597  1
 Ti  Ti2  1  0.49021  0.98488  0.00649  1
