CIF file written using JARVIS-Tools package.
data_H14C9O6
_symmetry_space_group_name_H-M  'P2_1'
_cell_length_a       8.74049
_cell_length_b       5.00592
_cell_length_c       10.3834
_cell_angle_alpha    90
_cell_angle_beta     99.0538
_cell_angle_gamma    90

_symmetry_Int_Tables_number  4
_chemical_formula_structural  H14C9O6
_chemical_formula_sum  H28C8O2
_cell_volume  448.6556971839538
_cell_formula_units_Z  2
loop_
  _symmetry_equiv_pos_site_id
 _symmetry_equiv_pos_as_xyz
 1  'x, y, z'
loop_
 _atom_site_type_symbol
 _atom_site_label
 _atom_site_symmetry_multiplicity
 _atom_site_fract_x
 _atom_site_fract_y
 _atom_site_fract_z
 _atom_site_fract_occupancy
 C  C1  1  0.34974  0.99412  0.60172  1
 C  C2  1  0.39649  0.48353  0.23329  1
 C  C3  1  0.60351  0.98353  0.76671  1
 C  C4  1  0.66610  0.41307  0.16824  1
 C  C5  1  0.33390  0.91307  0.83176  1
 C  C6  1  0.56731  0.56289  0.25939  1
 C  C7  1  0.43269  0.06289  0.74061  1
 C  C8  1  0.82026  0.50660  0.37872  1
 C  C9  1  0.30797  0.06953  0.95240  1
 C  C10  1  0.65026  0.49412  0.39828  1
 C  C11  1  0.17792  0.84110  0.74527  1
 C  C12  1  0.96234  0.39655  0.18773  1
 C  C13  1  0.03766  0.89655  0.81227  1
 C  C14  1  0.95758  0.67432  0.13447  1
 C  C15  1  0.04242  0.17432  0.86553  1
 C  C16  1  0.69203  0.56953  0.04760  1
 C  C17  1  0.17974  0.00660  0.62128  1
 C  C18  1  0.82208  0.34110  0.25473  1
 H  H1  1  0.38238  0.26860  0.25051  1
 H  H2  1  0.34963  0.52743  0.13067  1
 H  H3  1  0.22332  0.72564  0.26089  1
 H  H4  1  0.77668  0.22564  0.73911  1
 H  H5  1  0.61762  0.76860  0.74949  1
 H  H6  1  0.15285  0.21681  0.63991  1
 H  H7  1  0.65037  0.02743  0.86933  1
 H  H8  1  0.82169  0.12856  0.28066  1
 H  H9  1  0.17831  0.62856  0.71934  1
 H  H10  1  0.96320  0.25685  0.10623  1
 H  H11  1  0.03680  0.75685  0.89377  1
 H  H12  1  0.07119  0.36706  0.25477  1
 H  H13  1  0.62218  0.63580  0.47222  1
 H  H14  1  0.59199  0.69201  0.00892  1
 H  H15  1  0.40801  0.19201  -0.00892  1
 H  H16  1  0.71968  0.43584  0.97086  1
 H  H17  1  0.57414  0.94957  0.31589  1
 H  H18  1  0.92881  0.86706  0.74523  1
 H  H19  1  0.64526  0.19350  0.52485  1
 H  H20  1  0.35474  0.69350  0.47515  1
 H  H21  1  0.28032  0.93584  0.02914  1
 H  H22  1  0.00417  0.07037  0.48506  1
 H  H23  1  0.84715  0.71681  0.36009  1
 H  H24  1  0.37782  0.13580  0.52778  1
 H  H25  1  0.99583  0.57037  0.51494  1
 H  H26  1  0.39261  0.72659  0.86623  1
 H  H27  1  0.60739  0.22659  0.13377  1
 H  H28  1  0.42586  0.44957  0.68411  1
 O  O1  1  0.39263  0.72797  0.56967  1
 O  O2  1  0.41919  0.34373  0.76361  1
 O  O3  1  0.68895  0.13478  0.68383  1
 O  O4  1  0.31105  0.63478  0.31617  1
 O  O5  1  0.58081  0.84373  0.23639  1
 O  O6  1  0.92886  0.41413  0.48776  1
 O  O7  1  0.93021  0.32815  0.85480  1
 O  O8  1  0.06979  0.82815  0.14520  1
 O  O9  1  0.07114  0.91413  0.51224  1
 O  O10  1  0.17937  0.26391  0.92767  1
 O  O11  1  0.82063  0.76391  0.07233  1
 O  O12  1  0.60737  0.22797  0.43033  1
