CIF file written using JARVIS-Tools package.
data_La4BrCl3O4
_symmetry_space_group_name_H-M  'P4mm'
_cell_length_a       4.12322
_cell_length_b       4.12322
_cell_length_c       14.1468
_cell_angle_alpha    90
_cell_angle_beta     90
_cell_angle_gamma    90

_symmetry_Int_Tables_number  99
_chemical_formula_structural  La4BrCl3O4
_chemical_formula_sum  La4BrCl3O4
_cell_volume  240.50858855445605
_cell_formula_units_Z  1
loop_
  _symmetry_equiv_pos_site_id
 _symmetry_equiv_pos_as_xyz
 1  'x, y, z'
loop_
 _atom_site_type_symbol
 _atom_site_label
 _atom_site_symmetry_multiplicity
 _atom_site_fract_x
 _atom_site_fract_y
 _atom_site_fract_z
 _atom_site_fract_occupancy
 Br  Br1  1  0.00000  0.00000  0.31488  1
 Cl  Cl1  1  0.00000  0.00000  0.81394  1
 Cl  Cl2  1  0.50000  0.50000  0.17718  1
 Cl  Cl3  1  0.50000  0.50000  0.68658  1
 La  La1  1  0.00000  0.00000  0.08132  1
 La  La2  1  0.00000  0.00000  0.59293  1
 La  La3  1  0.50000  0.50000  0.42077  1
 La  La4  1  0.50000  0.50000  0.90961  1
 O  O1  1  0.50000  0.00000  0.99497  1
 O  O2  1  0.50000  0.00000  0.50643  1
 O  O3  1  0.00000  0.50000  0.99497  1
 O  O4  1  0.00000  0.50000  0.50643  1
