CIF file written using JARVIS-Tools package.
data_MnCrCoO4
_symmetry_space_group_name_H-M  'Imma'
_cell_length_a       5.84901
_cell_length_b       5.84901
_cell_length_c       5.84901
_cell_angle_alpha    119.834
_cell_angle_beta     119.378
_cell_angle_gamma    90.6839

_symmetry_Int_Tables_number  74
_chemical_formula_structural  MnCrCoO4
_chemical_formula_sum  Mn2Cr2Co2O8
_cell_volume  142.32031421153718
_cell_formula_units_Z  2
loop_
  _symmetry_equiv_pos_site_id
 _symmetry_equiv_pos_as_xyz
 1  'x, y, z'
loop_
 _atom_site_type_symbol
 _atom_site_label
 _atom_site_symmetry_multiplicity
 _atom_site_fract_x
 _atom_site_fract_y
 _atom_site_fract_z
 _atom_site_fract_occupancy
 Co  Co1  1  0.50000  0.50000  0.50000  1
 Co  Co2  1  0.50000  0.00000  0.00000  1
 Cr  Cr1  1  0.50000  0.50000  -0.00000  1
 Cr  Cr2  1  0.00000  0.50000  0.50000  1
 Mn  Mn1  1  0.12395  0.87395  0.25000  1
 Mn  Mn2  1  0.87605  0.12605  0.75000  1
 O  O1  1  0.73702  0.26214  0.02512  1
 O  O2  1  0.73702  0.71191  0.47488  1
 O  O3  1  0.72836  0.25978  0.46858  1
 O  O4  1  0.29120  0.25978  0.03142  1
 O  O5  1  0.26298  0.73786  0.97488  1
 O  O6  1  0.26298  0.28809  0.52512  1
 O  O7  1  0.27164  0.74022  0.53142  1
 O  O8  1  0.70880  0.74022  0.96858  1
