CIF file written using JARVIS-Tools package.
data_Li3Mn8O16
_symmetry_space_group_name_H-M  'P-4m2'
_cell_length_a       5.73111
_cell_length_b       5.73111
_cell_length_c       8.10142
_cell_angle_alpha    90
_cell_angle_beta     90
_cell_angle_gamma    90

_symmetry_Int_Tables_number  115
_chemical_formula_structural  Li3Mn8O16
_chemical_formula_sum  Li3Mn8O6
_cell_volume  266.0966204734737
_cell_formula_units_Z  1
loop_
  _symmetry_equiv_pos_site_id
 _symmetry_equiv_pos_as_xyz
 1  'x, y, z'
loop_
 _atom_site_type_symbol
 _atom_site_label
 _atom_site_symmetry_multiplicity
 _atom_site_fract_x
 _atom_site_fract_y
 _atom_site_fract_z
 _atom_site_fract_occupancy
 Li  Li1  1  0.00000  0.00000  0.50000  1
 Li  Li2  1  0.50000  0.00000  0.75437  1
 Li  Li3  1  0.00000  0.50000  0.24563  1
 Mn  Mn1  1  0.74924  0.50000  0.62698  1
 Mn  Mn2  1  0.50000  0.74924  0.37302  1
 Mn  Mn3  1  0.25313  0.00000  0.12436  1
 Mn  Mn4  1  0.00000  0.25313  0.87564  1
 Mn  Mn5  1  0.74687  0.00000  0.12436  1
 Mn  Mn6  1  0.50000  0.25076  0.37302  1
 Mn  Mn7  1  0.00000  0.74687  0.87564  1
 Mn  Mn8  1  0.25076  0.50000  0.62698  1
 O  O1  1  0.22450  0.00000  0.88779  1
 O  O2  1  0.50000  0.27477  0.61274  1
 O  O3  1  0.00000  0.77550  0.11221  1
 O  O4  1  0.50000  0.77763  0.13891  1
 O  O5  1  0.77550  0.00000  0.88779  1
 O  O6  1  0.72523  0.50000  0.38726  1
 O  O7  1  0.27477  0.50000  0.38726  1
 O  O8  1  0.27449  0.00000  0.36298  1
 O  O9  1  0.00000  0.72551  0.63702  1
 O  O10  1  0.72551  0.00000  0.36298  1
 O  O11  1  0.22237  0.50000  0.86109  1
 O  O12  1  0.50000  0.72523  0.61274  1
 O  O13  1  0.77763  0.50000  0.86109  1
 O  O14  1  0.50000  0.22237  0.13891  1
 O  O15  1  0.00000  0.22450  0.11221  1
 O  O16  1  0.00000  0.27449  0.63702  1
