CIF file written using JARVIS-Tools package.
data_SnH4C2F2
_symmetry_space_group_name_H-M  'P-1'
_cell_length_a       4.28305
_cell_length_b       4.64739
_cell_length_c       9.45438
_cell_angle_alpha    87.9195
_cell_angle_beta     84.4989
_cell_angle_gamma    66.8738

_symmetry_Int_Tables_number  2
_chemical_formula_structural  SnH4C2F2
_chemical_formula_sum  Sn2H8C4F4
_cell_volume  172.26973570961974
_cell_formula_units_Z  2
loop_
  _symmetry_equiv_pos_site_id
 _symmetry_equiv_pos_as_xyz
 1  'x, y, z'
loop_
 _atom_site_type_symbol
 _atom_site_label
 _atom_site_symmetry_multiplicity
 _atom_site_fract_x
 _atom_site_fract_y
 _atom_site_fract_z
 _atom_site_fract_occupancy
 C  C1  1  0.94271  0.82815  0.61216  1
 C  C2  1  0.07032  0.83316  0.15924  1
 C  C3  1  0.79472  0.13267  0.11540  1
 C  C4  1  0.92222  0.13772  0.66247  1
 F  F1  1  0.60108  0.62761  0.38712  1
 F  F2  1  0.26400  0.33815  0.88752  1
 F  F3  1  0.25483  0.25583  0.38208  1
 F  F4  1  0.61028  0.70996  0.89258  1
 H  H1  1  0.72274  0.33469  0.61483  1
 H  H2  1  0.14214  0.63118  0.65983  1
 H  H3  1  0.16356  0.16667  0.64157  1
 H  H4  1  0.80857  0.33951  0.16155  1
 H  H5  1  0.05644  0.62633  0.11309  1
 H  H6  1  0.32677  0.82620  0.13097  1
 H  H7  1  0.53826  0.13962  0.14365  1
 H  H8  1  0.70135  0.79924  0.63303  1
 Sn  Sn1  1  0.06582  0.73609  0.38539  1
 Sn  Sn2  1  0.79927  0.22971  0.88925  1
