CIF file written using JARVIS-Tools package.
data_Ca2AuN
_symmetry_space_group_name_H-M  'Immm'
_cell_length_a       7.76054
_cell_length_b       7.76054
_cell_length_c       7.76054
_cell_angle_alpha    37.7782
_cell_angle_beta     153.411
_cell_angle_gamma    153.656

_symmetry_Int_Tables_number  71
_chemical_formula_structural  Ca2AuN
_chemical_formula_sum  Ca2AuN
_cell_volume  92.68975543789571
_cell_formula_units_Z  1
loop_
  _symmetry_equiv_pos_site_id
 _symmetry_equiv_pos_as_xyz
 1  'x, y, z'
loop_
 _atom_site_type_symbol
 _atom_site_label
 _atom_site_symmetry_multiplicity
 _atom_site_fract_x
 _atom_site_fract_y
 _atom_site_fract_z
 _atom_site_fract_occupancy
 Au  Au1  1  -0.00000  0.50000  0.50000  1
 Ca  Ca1  1  -0.00000  0.14742  0.14742  1
 Ca  Ca2  1  -0.00000  0.85259  0.85259  1
 N  N1  1  0.00000  0.00000  0.00000  1
