CIF file written using JARVIS-Tools package.
data_La2TiCuO6
_symmetry_space_group_name_H-M  'P2_1/c'
_cell_length_a       5.72288
_cell_length_b       5.59572
_cell_length_c       9.57418
_cell_angle_alpha    54.3352
_cell_angle_beta     90
_cell_angle_gamma    90

_symmetry_Int_Tables_number  14
_chemical_formula_structural  La2TiCuO6
_chemical_formula_sum  La4Ti2Cu2O2
_cell_volume  249.09500528901265
_cell_formula_units_Z  2
loop_
  _symmetry_equiv_pos_site_id
 _symmetry_equiv_pos_as_xyz
 1  'x, y, z'
loop_
 _atom_site_type_symbol
 _atom_site_label
 _atom_site_symmetry_multiplicity
 _atom_site_fract_x
 _atom_site_fract_y
 _atom_site_fract_z
 _atom_site_fract_occupancy
 Cu  Cu1  1  0.50000  0.00000  0.00000  1
 Cu  Cu2  1  0.00000  -0.00000  0.50000  1
 La  La1  1  0.54745  0.74197  0.74952  1
 La  La2  1  0.04745  0.25803  0.75048  1
 La  La3  1  0.45255  0.25803  0.25048  1
 La  La4  1  0.95255  0.74197  0.24952  1
 O  O1  1  0.97741  0.82874  0.75350  1
 O  O2  1  0.78305  0.64963  0.54453  1
 O  O3  1  0.02259  0.17126  0.24650  1
 O  O4  1  0.52259  0.82874  0.25350  1
 O  O5  1  0.47741  0.17126  0.74650  1
 O  O6  1  0.30577  0.74000  0.54260  1
 O  O7  1  0.19423  0.74000  0.04260  1
 O  O8  1  0.71695  0.64963  0.04453  1
 O  O9  1  0.80577  0.26000  0.95740  1
 O  O10  1  0.69423  0.26000  0.45740  1
 O  O11  1  0.21695  0.35037  0.45547  1
 O  O12  1  0.28305  0.35037  0.95547  1
 Ti  Ti1  1  0.00000  0.50000  0.00000  1
 Ti  Ti2  1  0.50000  0.50000  0.50000  1
