CIF file written using JARVIS-Tools package.
data_CdH20C12O4
_symmetry_space_group_name_H-M  'P1'
_cell_length_a       3.93721
_cell_length_b       4.34652
_cell_length_c       17.2389
_cell_angle_alpha    85.7361
_cell_angle_beta     87.8156
_cell_angle_gamma    76.8486

_symmetry_Int_Tables_number  1
_chemical_formula_structural  CdH20C12O4
_chemical_formula_sum  CdH20C2O4
_cell_volume  286.41086786390315
_cell_formula_units_Z  1
loop_
  _symmetry_equiv_pos_site_id
 _symmetry_equiv_pos_as_xyz
 1  'x, y, z'
loop_
 _atom_site_type_symbol
 _atom_site_label
 _atom_site_symmetry_multiplicity
 _atom_site_fract_x
 _atom_site_fract_y
 _atom_site_fract_z
 _atom_site_fract_occupancy
 C  C1  1  0.02039  0.58997  0.37860  1
 C  C2  1  0.71048  0.35707  0.74399  1
 C  C3  1  0.64826  0.55120  0.66678  1
 C  C4  1  0.81430  0.57935  0.52177  1
 C  C5  1  0.94366  0.38909  0.45102  1
 C  C6  1  0.77260  0.36728  0.59481  1
 C  C7  1  0.15715  0.39224  0.30947  1
 C  C8  1  0.24344  0.58593  0.23660  1
 C  C9  1  0.39408  0.37966  0.16980  1
 C  C10  1  0.48522  0.56463  0.09583  1
 C  C11  1  0.66662  0.34218  0.03460  1
 C  C12  1  0.79239  0.50130  0.96178  1
 Cd  Cd1  1  0.14262  0.86991  0.85910  1
 H  H1  1  0.56478  0.74790  0.50844  1
 H  H2  1  0.37115  0.67198  0.66440  1
 H  H3  1  0.78174  0.76771  0.36198  1
 H  H4  1  0.79076  0.74035  0.67082  1
 H  H5  1  0.00612  0.75973  0.21740  1
 H  H6  1  0.00009  0.72471  0.53343  1
 H  H7  1  0.02539  0.20423  0.60722  1
 H  H8  1  0.49281  0.19915  0.01548  1
 H  H9  1  0.63139  0.20820  0.18998  1
 H  H10  1  0.20974  0.23629  0.15593  1
 H  H11  1  0.39363  0.21337  0.32697  1
 H  H12  1  0.21247  0.72537  0.39267  1
 H  H13  1  0.96476  0.25734  0.29527  1
 H  H14  1  0.75087  0.25390  0.43721  1
 H  H15  1  0.89456  0.17290  0.05923  1
 H  H16  1  0.59035  0.21792  0.58376  1
 H  H17  1  0.65485  0.72021  0.11056  1
 H  H18  1  0.24772  0.72176  0.07144  1
 H  H19  1  0.43064  0.72547  0.25118  1
 H  H20  1  0.18345  0.21061  0.46658  1
 O  O1  1  0.95931  0.10643  0.74583  1
 O  O2  1  0.06305  0.35952  0.92538  1
 O  O3  1  0.53053  0.44810  0.80394  1
 O  O4  1  0.63777  0.78647  0.93888  1
