CIF file written using JARVIS-Tools package.
data_La6MgGe2S14
_symmetry_space_group_name_H-M  'P3'
_cell_length_a       10.3793
_cell_length_b       10.3793
_cell_length_c       5.83636
_cell_angle_alpha    90
_cell_angle_beta     90
_cell_angle_gamma    120

_symmetry_Int_Tables_number  143
_chemical_formula_structural  La6MgGe2S14
_chemical_formula_sum  La6MgGe2S4
_cell_volume  544.5092609254781
_cell_formula_units_Z  1
loop_
  _symmetry_equiv_pos_site_id
 _symmetry_equiv_pos_as_xyz
 1  'x, y, z'
loop_
 _atom_site_type_symbol
 _atom_site_label
 _atom_site_symmetry_multiplicity
 _atom_site_fract_x
 _atom_site_fract_y
 _atom_site_fract_z
 _atom_site_fract_occupancy
 Ge  Ge1  1  0.66667  0.33333  0.82745  1
 Ge  Ge2  1  0.00000  0.00000  0.33734  1
 La  La1  1  0.56463  0.02405  0.24624  1
 La  La2  1  0.97595  0.54057  0.24624  1
 La  La3  1  0.45943  0.43537  0.24624  1
 La  La4  1  0.10370  0.30967  0.75476  1
 La  La5  1  0.69033  0.79403  0.75476  1
 La  La6  1  0.20597  0.89630  0.75476  1
 Mg  Mg1  1  0.33333  0.66667  0.48728  1
 S  S1  1  0.43896  0.18667  0.97933  1
 S  S2  1  0.81333  0.25229  0.97933  1
 S  S3  1  0.57874  0.75242  0.24712  1
 S  S4  1  0.22833  0.14595  0.48617  1
 S  S5  1  0.85405  0.08238  0.48617  1
 S  S6  1  0.74771  0.56104  0.97933  1
 S  S7  1  0.08755  0.57834  0.72469  1
 S  S8  1  0.00000  0.00000  0.95989  1
 S  S9  1  0.49079  0.91245  0.72469  1
 S  S10  1  0.91762  0.77167  0.48617  1
 S  S11  1  0.42166  0.50921  0.72469  1
 S  S12  1  0.17368  0.42126  0.24712  1
 S  S13  1  0.66667  0.33333  0.45103  1
 S  S14  1  0.24758  0.82632  0.24712  1
