CIF file written using JARVIS-Tools package.
data_Mg2AuO3
_symmetry_space_group_name_H-M  'Immm'
_cell_length_a       6.15999
_cell_length_b       6.15999
_cell_length_c       6.15999
_cell_angle_alpha    151.446
_cell_angle_beta     139.271
_cell_angle_gamma    50.4935

_symmetry_Int_Tables_number  71
_chemical_formula_structural  Mg2AuO3
_chemical_formula_sum  Mg2AuO3
_cell_volume  72.57495827488863
_cell_formula_units_Z  1
loop_
  _symmetry_equiv_pos_site_id
 _symmetry_equiv_pos_as_xyz
 1  'x, y, z'
loop_
 _atom_site_type_symbol
 _atom_site_label
 _atom_site_symmetry_multiplicity
 _atom_site_fract_x
 _atom_site_fract_y
 _atom_site_fract_z
 _atom_site_fract_occupancy
 Au  Au1  1  0.50000  0.00000  0.50000  1
 Mg  Mg1  1  0.85137  0.35137  0.50000  1
 Mg  Mg2  1  0.14863  0.64863  0.50000  1
 O  O1  1  0.00000  0.00000  0.00000  1
 O  O2  1  0.31945  0.81945  0.50000  1
 O  O3  1  0.68055  0.18055  0.50000  1
