CIF file written using JARVIS-Tools package.
data_Ho2As7Rh12
_symmetry_space_group_name_H-M  'P-3'
_cell_length_a       9.98006
_cell_length_b       9.98006
_cell_length_c       3.91624
_cell_angle_alpha    90
_cell_angle_beta     90
_cell_angle_gamma    120

_symmetry_Int_Tables_number  147
_chemical_formula_structural  Ho2As7Rh12
_chemical_formula_sum  Ho2As7Rh2
_cell_volume  337.8051715460589
_cell_formula_units_Z  1
loop_
  _symmetry_equiv_pos_site_id
 _symmetry_equiv_pos_as_xyz
 1  'x, y, z'
loop_
 _atom_site_type_symbol
 _atom_site_label
 _atom_site_symmetry_multiplicity
 _atom_site_fract_x
 _atom_site_fract_y
 _atom_site_fract_z
 _atom_site_fract_occupancy
 As  As1  1  0.00000  0.00000  0.50000  1
 As  As2  1  0.40613  0.11880  0.25049  1
 As  As3  1  0.71268  0.59387  0.25049  1
 As  As4  1  0.88120  0.28732  0.25049  1
 As  As5  1  0.59387  0.88120  0.74951  1
 As  As6  1  0.28732  0.40613  0.74951  1
 As  As7  1  0.11880  0.71268  0.74951  1
 Ho  Ho1  1  0.33333  0.66667  0.24687  1
 Ho  Ho2  1  0.66667  0.33333  0.75313  1
 Rh  Rh1  1  0.44916  0.38171  0.25053  1
 Rh  Rh2  1  0.26356  0.14915  0.75521  1
 Rh  Rh3  1  0.61829  0.06745  0.25053  1
 Rh  Rh4  1  0.55084  0.61829  0.74947  1
 Rh  Rh5  1  0.93255  0.55084  0.25053  1
 Rh  Rh6  1  0.11441  0.26356  0.24479  1
 Rh  Rh7  1  0.14915  0.88559  0.24479  1
 Rh  Rh8  1  0.73644  0.85085  0.24479  1
 Rh  Rh9  1  0.06745  0.44916  0.74947  1
 Rh  Rh10  1  0.85085  0.11441  0.75521  1
 Rh  Rh11  1  0.38171  0.93255  0.74947  1
 Rh  Rh12  1  0.88559  0.73644  0.75521  1
