CIF file written using JARVIS-Tools package.
data_Co5CuS8
_symmetry_space_group_name_H-M  'F-43m'
_cell_length_a       6.6448
_cell_length_b       6.6448
_cell_length_c       6.64479
_cell_angle_alpha    60
_cell_angle_beta     60
_cell_angle_gamma    60

_symmetry_Int_Tables_number  216
_chemical_formula_structural  Co5CuS8
_chemical_formula_sum  Co5CuS8
_cell_volume  207.45735390210865
_cell_formula_units_Z  1
loop_
  _symmetry_equiv_pos_site_id
 _symmetry_equiv_pos_as_xyz
 1  'x, y, z'
loop_
 _atom_site_type_symbol
 _atom_site_label
 _atom_site_symmetry_multiplicity
 _atom_site_fract_x
 _atom_site_fract_y
 _atom_site_fract_z
 _atom_site_fract_occupancy
 Co  Co1  1  0.62518  0.62518  0.12447  1
 Co  Co2  1  0.62518  0.12447  0.62518  1
 Co  Co3  1  0.12447  0.62518  0.62518  1
 Co  Co4  1  0.62518  0.62518  0.62518  1
 Co  Co5  1  0.25000  0.25000  0.25000  1
 Cu  Cu1  1  0.00000  0.00000  0.00000  1
 S  S1  1  0.86279  0.86279  0.41163  1
 S  S2  1  0.86279  0.41163  0.86279  1
 S  S3  1  0.41163  0.86279  0.86279  1
 S  S4  1  0.86279  0.86279  0.86279  1
 S  S5  1  0.38229  0.38229  0.85314  1
 S  S6  1  0.38229  0.85314  0.38229  1
 S  S7  1  0.85314  0.38229  0.38229  1
 S  S8  1  0.38229  0.38229  0.38229  1
