CIF file written using JARVIS-Tools package.
data_K8LaP4Se16
_symmetry_space_group_name_H-M  'I222'
_cell_length_a       11.6826
_cell_length_b       11.6826
_cell_length_c       11.6826
_cell_angle_alpha    134.296
_cell_angle_beta     127.279
_cell_angle_gamma    72.2982

_symmetry_Int_Tables_number  23
_chemical_formula_structural  K8LaP4Se16
_chemical_formula_sum  K8LaP4Se6
_cell_volume  888.0448983121534
_cell_formula_units_Z  1
loop_
  _symmetry_equiv_pos_site_id
 _symmetry_equiv_pos_as_xyz
 1  'x, y, z'
loop_
 _atom_site_type_symbol
 _atom_site_label
 _atom_site_symmetry_multiplicity
 _atom_site_fract_x
 _atom_site_fract_y
 _atom_site_fract_z
 _atom_site_fract_occupancy
 K  K1  1  0.83951  0.20136  0.87264  1
 K  K2  1  0.67128  0.79864  0.63815  1
 K  K3  1  0.16049  0.03313  0.36185  1
 K  K4  1  0.32872  0.96687  0.12736  1
 K  K5  1  0.74635  0.74635  0.00000  1
 K  K6  1  0.25365  0.25365  -0.00000  1
 K  K7  1  0.78808  0.28808  0.50000  1
 K  K8  1  0.21192  0.71192  0.50000  1
 La  La1  1  0.50000  0.50000  0.00000  1
 P  P1  1  0.12761  0.57981  0.96251  1
 P  P2  1  0.38270  0.42019  0.54779  1
 P  P3  1  0.87239  0.83490  0.45221  1
 P  P4  1  0.61730  0.16510  0.03749  1
 Se  Se1  1  0.35460  0.73344  0.23159  1
 Se  Se2  1  0.83101  0.57215  0.18789  1
 Se  Se3  1  0.50304  -0.00606  0.98237  1
 Se  Se4  1  0.16899  0.35688  0.74114  1
 Se  Se5  1  0.38426  0.64312  0.81211  1
 Se  Se6  1  0.49815  0.26656  0.62116  1
 Se  Se7  1  0.61574  0.42785  0.25886  1
 Se  Se8  1  0.01157  0.52067  0.01763  1
 Se  Se9  1  0.15529  0.27948  0.27729  1
 Se  Se10  1  0.00219  0.87800  0.72271  1
 Se  Se11  1  0.84471  0.12200  0.12419  1
 Se  Se12  1  0.49696  0.47933  0.49091  1
 Se  Se13  1  0.50185  0.12301  0.76841  1
 Se  Se14  1  -0.00219  0.72052  0.87581  1
 Se  Se15  1  0.64540  0.87699  0.37884  1
 Se  Se16  1  0.98843  0.00606  0.50909  1
