CIF file written using JARVIS-Tools package.
data_SnH12C6F2
_symmetry_space_group_name_H-M  'P1'
_cell_length_a       4.3186
_cell_length_b       4.6488
_cell_length_c       18.7707
_cell_angle_alpha    94.8757
_cell_angle_beta     93.1949
_cell_angle_gamma    110.566

_symmetry_Int_Tables_number  1
_chemical_formula_structural  SnH12C6F2
_chemical_formula_sum  Sn2H24C2F4
_cell_volume  350.06950079157696
_cell_formula_units_Z  2
loop_
  _symmetry_equiv_pos_site_id
 _symmetry_equiv_pos_as_xyz
 1  'x, y, z'
loop_
 _atom_site_type_symbol
 _atom_site_label
 _atom_site_symmetry_multiplicity
 _atom_site_fract_x
 _atom_site_fract_y
 _atom_site_fract_z
 _atom_site_fract_occupancy
 C  C1  1  0.97977  0.72880  0.07322  1
 C  C2  1  0.84546  0.07671  0.70085  1
 C  C3  1  0.23409  -0.00733  0.12353  1
 C  C4  1  0.29703  0.88649  0.19638  1
 C  C5  1  0.34329  0.87495  0.36082  1
 C  C6  1  0.80619  0.55612  0.85734  1
 C  C7  1  0.53677  0.14520  0.25034  1
 C  C8  1  0.63840  0.03042  0.31929  1
 C  C9  1  0.68698  0.72151  0.80087  1
 C  C10  1  0.96519  0.92111  0.75985  1
 C  C11  1  0.56684  0.04004  0.57760  1
 C  C12  1  0.66868  0.85946  0.63286  1
 F  F1  1  0.14692  0.26967  0.95826  1
 F  F2  1  0.50570  0.90017  0.96241  1
 F  F3  1  0.87150  0.70877  0.46886  1
 F  F4  1  0.23298  0.34350  0.47849  1
 H  H1  1  0.42405  0.31940  0.26460  1
 H  H2  1  0.76293  0.26492  0.22432  1
 H  H3  1  0.60377  0.35559  0.87192  1
 H  H4  1  0.00527  0.47835  0.84063  1
 H  H5  1  0.55705  0.86412  0.82556  1
 H  H6  1  0.18344  0.64688  0.33433  1
 H  H7  1  0.19212  0.01890  0.36748  1
 H  H8  1  0.03665  0.51634  0.07240  1
 H  H9  1  0.72472  0.67703  0.08782  1
 H  H10  1  0.14566  0.18726  0.13178  1
 H  H11  1  0.47119  0.08295  0.09926  1
 H  H12  1  0.83662  0.75014  0.61079  1
 H  H13  1  0.77807  0.24424  0.56765  1
 H  H14  1  0.36630  0.11783  0.59360  1
 H  H15  1  0.50024  0.54527  0.76225  1
 H  H16  1  0.67996  0.19008  0.72238  1
 H  H17  1  0.09669  0.77810  0.73564  1
 H  H18  1  0.14912  0.09871  0.79861  1
 H  H19  1  0.44897  0.66972  0.64600  1
 H  H20  1  0.39831  0.70007  0.18759  1
 H  H21  1  0.05758  0.78237  0.21889  1
 H  H22  1  0.82059  0.22735  0.35361  1
 H  H23  1  0.76282  0.86778  0.30454  1
 H  H24  1  0.06037  0.26293  0.68447  1
 Sn  Sn1  1  0.98038  0.80703  0.96203  1
 Sn  Sn2  1  0.40968  0.80336  0.47135  1
