CIF file written using JARVIS-Tools package.
data_SnH4C2F2
_symmetry_space_group_name_H-M  'Cc'
_cell_length_a       5.24747
_cell_length_b       6.13592
_cell_length_c       6.13617
_cell_angle_alpha    65.5038
_cell_angle_beta     76.8608
_cell_angle_gamma    76.8591

_symmetry_Int_Tables_number  9
_chemical_formula_structural  SnH4C2F2
_chemical_formula_sum  Sn2H8C4F4
_cell_volume  173.09648997401374
_cell_formula_units_Z  2
loop_
  _symmetry_equiv_pos_site_id
 _symmetry_equiv_pos_as_xyz
 1  'x, y, z'
loop_
 _atom_site_type_symbol
 _atom_site_label
 _atom_site_symmetry_multiplicity
 _atom_site_fract_x
 _atom_site_fract_y
 _atom_site_fract_z
 _atom_site_fract_occupancy
 C  C1  1  0.81568  0.99412  0.35690  1
 C  C2  1  0.56318  0.17064  0.31705  1
 C  C3  1  0.06316  0.56404  0.92363  1
 C  C4  1  0.31564  0.60392  0.74710  1
 F  F1  1  0.04311  0.47638  0.43876  1
 F  F2  1  0.54310  0.68581  0.22938  1
 F  F3  1  0.20993  0.06681  0.85621  1
 F  F4  1  0.70991  0.10325  0.81984  1
 H  H1  1  0.58315  0.32683  0.14606  1
 H  H2  1  -0.01567  0.07698  0.34641  1
 H  H3  1  0.39813  0.08622  0.32120  1
 H  H4  1  0.89810  0.56821  0.83921  1
 H  H5  1  0.48430  0.59344  0.82995  1
 H  H6  1  0.29620  0.77599  0.59206  1
 H  H7  1  0.08315  0.39304  0.07980  1
 H  H8  1  0.79626  0.83906  0.52897  1
 Sn  Sn1  1  0.91288  0.82387  0.09506  1
 Sn  Sn2  1  0.41288  0.34205  0.57688  1
