CIF file written using JARVIS-Tools package.
data_Cr4GaCuS8
_symmetry_space_group_name_H-M  'F-43m'
_cell_length_a       7.0421
_cell_length_b       7.0421
_cell_length_c       7.0421
_cell_angle_alpha    60
_cell_angle_beta     60
_cell_angle_gamma    60

_symmetry_Int_Tables_number  216
_chemical_formula_structural  Cr4GaCuS8
_chemical_formula_sum  Cr4GaCuS8
_cell_volume  246.9403759364942
_cell_formula_units_Z  1
loop_
  _symmetry_equiv_pos_site_id
 _symmetry_equiv_pos_as_xyz
 1  'x, y, z'
loop_
 _atom_site_type_symbol
 _atom_site_label
 _atom_site_symmetry_multiplicity
 _atom_site_fract_x
 _atom_site_fract_y
 _atom_site_fract_z
 _atom_site_fract_occupancy
 Cr  Cr1  1  0.63631  0.12123  0.12123  1
 Cr  Cr2  1  0.12123  0.63631  0.12123  1
 Cr  Cr3  1  0.12123  0.12123  0.63631  1
 Cr  Cr4  1  0.12123  0.12123  0.12123  1
 Cu  Cu1  1  0.75000  0.75000  0.75000  1
 Ga  Ga1  1  0.50000  0.50000  0.50000  1
 S  S1  1  0.34967  0.88344  0.88344  1
 S  S2  1  0.88344  0.34967  0.88344  1
 S  S3  1  0.88344  0.88344  0.34967  1
 S  S4  1  0.88344  0.88344  0.88344  1
 S  S5  1  0.90404  0.36532  0.36532  1
 S  S6  1  0.36532  0.90404  0.36532  1
 S  S7  1  0.36532  0.36532  0.90404  1
 S  S8  1  0.36532  0.36532  0.36532  1
