CIF file written using JARVIS-Tools package.
data_Co3Ni9P4
_symmetry_space_group_name_H-M  'P1'
_cell_length_a       4.35015
_cell_length_b       6.70477
_cell_length_c       6.70125
_cell_angle_alpha    84.1651
_cell_angle_beta     71.1839
_cell_angle_gamma    71.0876

_symmetry_Int_Tables_number  1
_chemical_formula_structural  Co3Ni9P4
_chemical_formula_sum  Co3Ni9P4
_cell_volume  175.01973090480732
_cell_formula_units_Z  1
loop_
  _symmetry_equiv_pos_site_id
 _symmetry_equiv_pos_as_xyz
 1  'x, y, z'
loop_
 _atom_site_type_symbol
 _atom_site_label
 _atom_site_symmetry_multiplicity
 _atom_site_fract_x
 _atom_site_fract_y
 _atom_site_fract_z
 _atom_site_fract_occupancy
 Co  Co1  1  0.32540  0.81328  0.03472  1
 Co  Co2  1  0.85964  0.96689  0.82072  1
 Co  Co3  1  0.64970  0.03051  0.17929  1
 Ni  Ni1  1  0.58776  0.39041  0.94738  1
 Ni  Ni2  1  0.93169  0.61079  0.05190  1
 Ni  Ni3  1  0.45801  0.94995  0.61255  1
 Ni  Ni4  1  0.02057  0.05194  0.38783  1
 Ni  Ni5  1  0.61377  0.39817  0.33150  1
 Ni  Ni6  1  0.34048  0.60354  0.66780  1
 Ni  Ni7  1  0.05694  0.33264  0.60144  1
 Ni  Ni8  1  0.98647  0.66893  0.39971  1
 Ni  Ni9  1  0.16698  0.18314  0.96591  1
 P  P1  1  0.19853  0.33319  0.23693  1
 P  P2  1  0.76595  0.66683  0.76375  1
 P  P3  1  0.56935  0.23717  0.66477  1
 P  P4  1  0.46876  0.76263  0.33379  1
