CIF file written using JARVIS-Tools package.
data_H8PbC6SO4
_symmetry_space_group_name_H-M  'P1'
_cell_length_a       4.27576
_cell_length_b       5.00082
_cell_length_c       10.1996
_cell_angle_alpha    88.457
_cell_angle_beta     93.6209
_cell_angle_gamma    113.153

_symmetry_Int_Tables_number  1
_chemical_formula_structural  H8PbC6SO4
_chemical_formula_sum  H8PbC6SO4
_cell_volume  200.1244766040533
_cell_formula_units_Z  1
loop_
  _symmetry_equiv_pos_site_id
 _symmetry_equiv_pos_as_xyz
 1  'x, y, z'
loop_
 _atom_site_type_symbol
 _atom_site_label
 _atom_site_symmetry_multiplicity
 _atom_site_fract_x
 _atom_site_fract_y
 _atom_site_fract_z
 _atom_site_fract_occupancy
 C  C1  1  0.55329  0.64518  0.90469  1
 C  C2  1  0.38976  0.57796  0.47587  1
 C  C3  1  0.50486  0.43482  0.36937  1
 C  C4  1  0.71790  0.64031  0.26710  1
 C  C5  1  0.82383  0.58239  0.69647  1
 C  C6  1  0.57496  0.43979  0.80258  1
 H  H1  1  0.66634  0.28596  0.85566  1
 H  H2  1  0.26943  0.28388  0.31687  1
 H  H3  1  0.84472  0.41076  0.63772  1
 H  H4  1  0.07751  0.71308  0.74023  1
 H  H5  1  0.21492  0.40604  0.53615  1
 H  H6  1  0.25166  0.70565  0.43251  1
 H  H7  1  0.63946  0.30077  0.40955  1
 H  H8  1  0.31677  0.30889  0.76174  1
 O  O1  1  0.28903  0.55552  0.97318  1
 O  O2  1  0.79324  0.89520  0.92212  1
 O  O3  1  0.71275  0.89220  0.25039  1
 O  O4  1  0.89758  0.54957  0.19818  1
 Pb  Pb1  1  0.28363  0.97212  0.08686  1
 S  S1  1  0.72229  0.83180  0.58487  1
