CIF file written using JARVIS-Tools package.
data_Cr2FeSeS3
_symmetry_space_group_name_H-M  'Imm2'
_cell_length_a       7.01132
_cell_length_b       7.01131
_cell_length_c       7.01131
_cell_angle_alpha    119.3
_cell_angle_beta     119.764
_cell_angle_gamma    90.8128

_symmetry_Int_Tables_number  44
_chemical_formula_structural  Cr2FeSeS3
_chemical_formula_sum  Cr4Fe2Se2S6
_cell_volume  245.40752566734795
_cell_formula_units_Z  2
loop_
  _symmetry_equiv_pos_site_id
 _symmetry_equiv_pos_as_xyz
 1  'x, y, z'
loop_
 _atom_site_type_symbol
 _atom_site_label
 _atom_site_symmetry_multiplicity
 _atom_site_fract_x
 _atom_site_fract_y
 _atom_site_fract_z
 _atom_site_fract_occupancy
 Cr  Cr1  1  0.24650  0.49552  0.75097  1
 Cr  Cr2  1  0.74455  0.49552  0.24903  1
 Cr  Cr3  1  0.74804  0.48628  0.73824  1
 Cr  Cr4  1  0.74804  0.00980  0.26176  1
 Fe  Fe1  1  0.39656  0.89656  0.50000  1
 Fe  Fe2  1  0.11714  0.11714  -0.00000  1
 S  S1  1  0.50359  0.73661  0.23302  1
 S  S2  1  0.50359  0.27056  0.76698  1
 S  S3  1  0.51302  0.25261  0.26040  1
 S  S4  1  0.99221  0.25261  0.73960  1
 S  S5  1  0.99067  0.25988  0.26921  1
 S  S6  1  0.99067  0.72146  0.73079  1
 Se  Se1  1  0.99787  0.75271  0.24516  1
 Se  Se2  1  0.50756  0.75271  0.75484  1
