CIF file written using JARVIS-Tools package.
data_H12PbC8O4
_symmetry_space_group_name_H-M  'P-1'
_cell_length_a       3.97885
_cell_length_b       4.33264
_cell_length_c       12.961
_cell_angle_alpha    90.7505
_cell_angle_beta     93.5651
_cell_angle_gamma    103.076

_symmetry_Int_Tables_number  2
_chemical_formula_structural  H12PbC8O4
_chemical_formula_sum  H2PbC8O4
_cell_volume  217.1327332025815
_cell_formula_units_Z  1
loop_
  _symmetry_equiv_pos_site_id
 _symmetry_equiv_pos_as_xyz
 1  'x, y, z'
loop_
 _atom_site_type_symbol
 _atom_site_label
 _atom_site_symmetry_multiplicity
 _atom_site_fract_x
 _atom_site_fract_y
 _atom_site_fract_z
 _atom_site_fract_occupancy
 C  C1  1  0.61718  0.26892  0.99279  1
 C  C2  1  0.81976  0.28192  0.18286  1
 C  C3  1  0.94559  0.49523  0.27903  1
 C  C4  1  0.04792  0.31601  0.37241  1
 C  C5  1  0.17375  0.52930  0.46860  1
 C  C6  1  0.27022  0.34012  0.56081  1
 C  C7  1  0.37618  0.54223  0.65868  1
 C  C8  1  0.72319  0.47107  0.09065  1
 H  H1  1  0.82473  0.12676  0.39074  1
 H  H2  1  0.48908  0.23613  0.54341  1
 H  H3  1  0.94026  0.66772  0.07560  1
 H  H4  1  0.74250  0.61704  0.29931  1
 H  H5  1  0.16877  0.68449  0.26071  1
 H  H6  1  0.25100  0.19419  0.35213  1
 H  H7  1  0.39893  0.71747  0.45177  1
 H  H8  1  0.59463  0.09372  0.19969  1
 H  H9  1  0.02299  0.16165  0.16191  1
 H  H10  1  0.05312  0.14348  0.57584  1
 H  H11  1  0.50433  0.57503  0.10806  1
 H  H12  1  0.97054  0.64962  0.48953  1
 O  O1  1  0.60630  0.79814  0.65671  1
 O  O2  1  0.38701  0.01304  -0.00523  1
 O  O3  1  0.76853  0.35880  0.90930  1
 O  O4  1  0.22485  0.45227  0.74217  1
 Pb  Pb1  1  0.99668  0.90555  0.82573  1
