CIF file written using JARVIS-Tools package.
data_MgAuO3
_symmetry_space_group_name_H-M  'Cm'
_cell_length_a       4.05326
_cell_length_b       4.05326
_cell_length_c       4.29859
_cell_angle_alpha    96.081
_cell_angle_beta     96.081
_cell_angle_gamma    93.9003

_symmetry_Int_Tables_number  8
_chemical_formula_structural  MgAuO3
_chemical_formula_sum  MgAuO3
_cell_volume  69.60378667128332
_cell_formula_units_Z  1
loop_
  _symmetry_equiv_pos_site_id
 _symmetry_equiv_pos_as_xyz
 1  'x, y, z'
loop_
 _atom_site_type_symbol
 _atom_site_label
 _atom_site_symmetry_multiplicity
 _atom_site_fract_x
 _atom_site_fract_y
 _atom_site_fract_z
 _atom_site_fract_occupancy
 Au  Au1  1  0.03191  0.03191  0.97217  1
 Mg  Mg1  1  0.46371  0.46371  0.70185  1
 O  O1  1  0.52625  -0.00854  0.87740  1
 O  O2  1  -0.00854  0.52625  0.87740  1
 O  O3  1  0.10002  0.10002  0.45784  1
