CIF file written using JARVIS-Tools package.
data_MgAuO2
_symmetry_space_group_name_H-M  'R-3m'
_cell_length_a       6.34958
_cell_length_b       6.34958
_cell_length_c       6.34958
_cell_angle_alpha    27.9088
_cell_angle_beta     27.9088
_cell_angle_gamma    27.9088

_symmetry_Int_Tables_number  166
_chemical_formula_structural  MgAuO2
_chemical_formula_sum  MgAuO2
_cell_volume  49.53045845911082
_cell_formula_units_Z  1
loop_
  _symmetry_equiv_pos_site_id
 _symmetry_equiv_pos_as_xyz
 1  'x, y, z'
loop_
 _atom_site_type_symbol
 _atom_site_label
 _atom_site_symmetry_multiplicity
 _atom_site_fract_x
 _atom_site_fract_y
 _atom_site_fract_z
 _atom_site_fract_occupancy
 Au  Au1  1  0.00000  0.00000  0.00000  1
 Mg  Mg1  1  0.50000  0.50000  0.50000  1
 O  O1  1  0.89175  0.89175  0.89175  1
 O  O2  1  0.10825  0.10825  0.10825  1
