CIF file written using JARVIS-Tools package.
data_MgPdAu
_symmetry_space_group_name_H-M  'P-6m2'
_cell_length_a       4.76177
_cell_length_b       4.76193
_cell_length_c       2.83452
_cell_angle_alpha    90
_cell_angle_beta     90
_cell_angle_gamma    60.0639

_symmetry_Int_Tables_number  187
_chemical_formula_structural  MgPdAu
_chemical_formula_sum  MgPdAu
_cell_volume  55.6982460282582
_cell_formula_units_Z  1
loop_
  _symmetry_equiv_pos_site_id
 _symmetry_equiv_pos_as_xyz
 1  'x, y, z'
loop_
 _atom_site_type_symbol
 _atom_site_label
 _atom_site_symmetry_multiplicity
 _atom_site_fract_x
 _atom_site_fract_y
 _atom_site_fract_z
 _atom_site_fract_occupancy
 Au  Au1  1  0.45199  -0.24387  0.00000  1
 Mg  Mg1  1  -0.21469  0.08945  0.00000  1
 Pd  Pd1  1  0.11849  0.42267  0.00000  1
