CIF file written using JARVIS-Tools package.
data_HC
_symmetry_space_group_name_H-M  'Pbca'
_cell_length_a       6.62956
_cell_length_b       7.27249
_cell_length_c       9.20095
_cell_angle_alpha    90
_cell_angle_beta     90
_cell_angle_gamma    90

_symmetry_Int_Tables_number  61
_chemical_formula_structural  HC
_chemical_formula_sum  H24C24
_cell_volume  443.60872269712956
_cell_formula_units_Z  24
loop_
  _symmetry_equiv_pos_site_id
 _symmetry_equiv_pos_as_xyz
 1  'x, y, z'
loop_
 _atom_site_type_symbol
 _atom_site_label
 _atom_site_symmetry_multiplicity
 _atom_site_fract_x
 _atom_site_fract_y
 _atom_site_fract_z
 _atom_site_fract_occupancy
 C  C1  1  0.12783  0.35879  0.45304  1
 C  C2  1  0.86409  0.57998  0.40311  1
 C  C3  1  0.13591  0.42002  0.59689  1
 C  C4  1  0.12783  0.14121  0.95304  1
 C  C5  1  0.62783  0.14121  0.54696  1
 C  C6  1  0.62783  0.35879  0.04696  1
 C  C7  1  0.37217  0.64121  0.95304  1
 C  C8  1  0.37217  0.85879  0.45304  1
 C  C9  1  0.36409  0.92002  0.59689  1
 C  C10  1  0.87217  0.85879  0.04696  1
 C  C11  1  0.36409  0.57998  0.09689  1
 C  C12  1  0.99197  0.43942  0.35591  1
 C  C13  1  0.86409  0.92002  0.90311  1
 C  C14  1  0.13591  0.07998  0.09689  1
 C  C15  1  0.00803  0.56058  0.64409  1
 C  C16  1  0.50803  0.93942  0.35591  1
 C  C17  1  0.49197  0.06058  0.64409  1
 C  C18  1  0.49197  0.43942  0.14409  1
 C  C19  1  0.50803  0.56058  0.85591  1
 C  C20  1  0.99197  0.06058  0.85591  1
 C  C21  1  0.00803  0.93942  0.14409  1
 C  C22  1  0.87217  0.64121  0.54696  1
 C  C23  1  0.63591  0.07998  0.40311  1
 C  C24  1  0.63591  0.42002  0.90311  1
 H  H1  1  0.01455  0.89293  0.25664  1
 H  H2  1  0.51455  0.60707  0.74336  1
 H  H3  1  0.77313  0.75230  0.58208  1
 H  H4  1  0.72687  0.25230  0.58208  1
 H  H5  1  0.27313  0.74770  0.41792  1
 H  H6  1  0.27313  0.75230  0.91792  1
 H  H7  1  0.72687  0.24770  0.08208  1
 H  H8  1  0.77313  0.74770  0.08208  1
 H  H9  1  0.22687  0.25230  0.91792  1
 H  H10  1  0.24320  0.35832  0.67196  1
 H  H11  1  0.75680  0.64168  0.32804  1
 H  H12  1  0.98545  0.10707  0.74336  1
 H  H13  1  0.74320  0.14168  0.32804  1
 H  H14  1  0.22687  0.24770  0.41792  1
 H  H15  1  0.74320  0.35832  0.82804  1
 H  H16  1  0.75680  0.85832  0.82804  1
 H  H17  1  0.24320  0.14168  0.17196  1
 H  H18  1  0.01455  0.60707  0.75664  1
 H  H19  1  0.98545  0.39293  0.24336  1
 H  H20  1  0.51455  0.89293  0.24336  1
 H  H21  1  0.48545  0.10707  0.75664  1
 H  H22  1  0.48545  0.39293  0.25664  1
 H  H23  1  0.25680  0.85832  0.67196  1
 H  H24  1  0.25680  0.64168  0.17196  1
