CIF file written using JARVIS-Tools package.
data_Ca10Ge6F
_symmetry_space_group_name_H-M  'I-42m'
_cell_length_a       9.07848
_cell_length_b       9.07848
_cell_length_c       9.07849
_cell_angle_alpha    129.906
_cell_angle_beta     129.906
_cell_angle_gamma    73.5576

_symmetry_Int_Tables_number  121
_chemical_formula_structural  Ca10Ge6F
_chemical_formula_sum  Ca0Ge6F
_cell_volume  429.6701934594321
_cell_formula_units_Z  1
loop_
  _symmetry_equiv_pos_site_id
 _symmetry_equiv_pos_as_xyz
 1  'x, y, z'
loop_
 _atom_site_type_symbol
 _atom_site_label
 _atom_site_symmetry_multiplicity
 _atom_site_fract_x
 _atom_site_fract_y
 _atom_site_fract_z
 _atom_site_fract_occupancy
 Ca  Ca1  1  0.25000  0.75000  0.50000  1
 Ca  Ca2  1  0.93142  0.93142  0.64553  1
 Ca  Ca3  1  0.76908  0.43466  0.00000  1
 Ca  Ca4  1  0.43466  0.76908  0.00000  1
 Ca  Ca5  1  0.56534  0.56534  0.33443  1
 Ca  Ca6  1  0.75000  0.25000  0.50000  1
 Ca  Ca7  1  0.71412  0.06858  -0.00000  1
 Ca  Ca8  1  0.06858  0.71412  0.00000  1
 Ca  Ca9  1  0.23092  0.23092  0.66557  1
 Ca  Ca10  1  0.28588  0.28588  0.35447  1
 F  F1  1  0.50000  0.50000  0.00000  1
 Ge  Ge1  1  0.87220  0.87220  0.23820  1
 Ge  Ge2  1  0.63400  0.63400  0.76180  1
 Ge  Ge3  1  -0.00000  0.50000  0.50000  1
 Ge  Ge4  1  0.50000  -0.00000  0.50000  1
 Ge  Ge5  1  0.12780  0.36600  0.00000  1
 Ge  Ge6  1  0.36600  0.12780  -0.00000  1
