CIF file written using JARVIS-Tools package.
data_BaSrNdCu3O7
_symmetry_space_group_name_H-M  'Pmm2'
_cell_length_a       3.81345
_cell_length_b       3.9385
_cell_length_c       11.6522
_cell_angle_alpha    90
_cell_angle_beta     90
_cell_angle_gamma    90

_symmetry_Int_Tables_number  25
_chemical_formula_structural  BaSrNdCu3O7
_chemical_formula_sum  BaSrNdCu3O7
_cell_volume  175.0078243549796
_cell_formula_units_Z  1
loop_
  _symmetry_equiv_pos_site_id
 _symmetry_equiv_pos_as_xyz
 1  'x, y, z'
loop_
 _atom_site_type_symbol
 _atom_site_label
 _atom_site_symmetry_multiplicity
 _atom_site_fract_x
 _atom_site_fract_y
 _atom_site_fract_z
 _atom_site_fract_occupancy
 Ba  Ba1  1  0.50000  0.50000  0.17778  1
 Cu  Cu1  1  0.00000  0.00000  0.34875  1
 Cu  Cu2  1  0.00000  0.00000  0.65824  1
 Cu  Cu3  1  0.00000  0.00000  0.99577  1
 Nd  Nd1  1  0.50000  0.50000  0.50362  1
 O  O1  1  0.00000  0.00000  0.15632  1
 O  O2  1  0.00000  0.00000  0.83646  1
 O  O3  1  0.50000  0.00000  0.37445  1
 O  O4  1  0.00000  0.50000  0.37152  1
 O  O5  1  0.50000  0.00000  0.63344  1
 O  O6  1  0.00000  0.50000  0.63837  1
 O  O7  1  0.00000  0.50000  0.98631  1
 Sr  Sr1  1  0.50000  0.50000  0.81896  1
