CIF file written using JARVIS-Tools package.
data_H8C5
_symmetry_space_group_name_H-M  'P-42_1c'
_cell_length_a       6.48232
_cell_length_b       6.48232
_cell_length_c       8.70034
_cell_angle_alpha    90
_cell_angle_beta     90
_cell_angle_gamma    90

_symmetry_Int_Tables_number  114
_chemical_formula_structural  H8C5
_chemical_formula_sum  H32C20
_cell_volume  365.59203885742846
_cell_formula_units_Z  4
loop_
  _symmetry_equiv_pos_site_id
 _symmetry_equiv_pos_as_xyz
 1  'x, y, z'
loop_
 _atom_site_type_symbol
 _atom_site_label
 _atom_site_symmetry_multiplicity
 _atom_site_fract_x
 _atom_site_fract_y
 _atom_site_fract_z
 _atom_site_fract_occupancy
 C  C1  1  0.50000  0.50000  0.20435  1
 C  C2  1  0.00000  0.00000  0.29565  1
 C  C3  1  0.15903  0.22351  0.50104  1
 C  C4  1  0.00000  0.00000  0.70435  1
 C  C5  1  0.34097  0.72351  0.99896  1
 C  C6  1  0.65903  0.27649  0.99896  1
 C  C7  1  0.72351  0.65903  0.00104  1
 C  C8  1  0.84097  0.77649  0.50104  1
 C  C9  1  0.22351  0.84097  0.49896  1
 C  C10  1  0.27649  0.34097  0.00104  1
 C  C11  1  0.53145  0.69166  0.10239  1
 C  C12  1  0.46855  0.30834  0.10239  1
 C  C13  1  0.69166  0.46855  0.89761  1
 C  C14  1  0.30834  0.53145  0.89761  1
 C  C15  1  0.03145  0.80834  0.39761  1
 C  C16  1  0.19166  0.03145  0.60239  1
 C  C17  1  0.80834  0.96855  0.60239  1
 C  C18  1  0.50000  0.50000  0.79565  1
 C  C19  1  0.96855  0.19166  0.39761  1
 C  C20  1  0.77649  0.15903  0.49896  1
 H  H1  1  0.02198  0.86516  0.77965  1
 H  H2  1  0.55343  0.82896  0.17552  1
 H  H3  1  0.52198  0.63484  0.72035  1
 H  H4  1  0.47802  0.36516  0.72035  1
 H  H5  1  0.86516  0.97802  0.22035  1
 H  H6  1  0.13484  0.02198  0.22035  1
 H  H7  1  0.67104  0.94657  0.67552  1
 H  H8  1  0.44657  0.17104  0.17552  1
 H  H9  1  0.36306  0.86100  0.92602  1
 H  H10  1  0.63694  0.13900  0.92602  1
 H  H11  1  0.86100  0.63694  0.07398  1
 H  H12  1  0.13900  0.36306  0.07398  1
 H  H13  1  0.86306  0.63900  0.57398  1
 H  H14  1  0.13694  0.36100  0.57398  1
 H  H15  1  0.63900  0.13694  0.42602  1
 H  H16  1  0.20300  0.75174  0.06973  1
 H  H17  1  0.79700  0.24826  0.06973  1
 H  H18  1  0.75174  0.79700  0.93027  1
 H  H19  1  0.17104  0.55343  0.82448  1
 H  H20  1  0.24826  0.20300  0.93027  1
 H  H21  1  0.29700  0.25174  0.43027  1
 H  H22  1  0.25174  0.70300  0.56973  1
 H  H23  1  0.74826  0.29700  0.56973  1
 H  H24  1  0.36100  0.86306  0.42602  1
 H  H25  1  0.63484  0.47802  0.27965  1
 H  H26  1  0.36516  0.52198  0.27965  1
 H  H27  1  0.32896  0.05343  0.67552  1
 H  H28  1  0.94657  0.32896  0.32448  1
 H  H29  1  0.05343  0.67104  0.32448  1
 H  H30  1  0.82896  0.44657  0.82448  1
 H  H31  1  0.70300  0.74826  0.43027  1
 H  H32  1  0.97802  0.13484  0.77965  1
