CIF file written using JARVIS-Tools package.
data_BiBO4
_symmetry_space_group_name_H-M  'Cmmm'
_cell_length_a       4.16216
_cell_length_b       4.16216
_cell_length_c       3.86568
_cell_angle_alpha    90
_cell_angle_beta     90
_cell_angle_gamma    77.8785

_symmetry_Int_Tables_number  65
_chemical_formula_structural  BiBO4
_chemical_formula_sum  BiBO4
_cell_volume  65.47441141592866
_cell_formula_units_Z  1
loop_
  _symmetry_equiv_pos_site_id
 _symmetry_equiv_pos_as_xyz
 1  'x, y, z'
loop_
 _atom_site_type_symbol
 _atom_site_label
 _atom_site_symmetry_multiplicity
 _atom_site_fract_x
 _atom_site_fract_y
 _atom_site_fract_z
 _atom_site_fract_occupancy
 B  B1  1  0.50000  0.50000  0.50000  1
 Bi  Bi1  1  0.00000  0.00000  0.00000  1
 O  O1  1  0.68352  0.68352  0.00000  1
 O  O2  1  0.75116  0.24884  0.50000  1
 O  O3  1  0.24884  0.75116  0.50000  1
 O  O4  1  0.31648  0.31648  0.00000  1
