CIF file written using JARVIS-Tools package.
data_BaSrErCu3O7
_symmetry_space_group_name_H-M  'Pmm2'
_cell_length_a       3.75407
_cell_length_b       3.89764
_cell_length_c       11.5457
_cell_angle_alpha    90
_cell_angle_beta     90
_cell_angle_gamma    90

_symmetry_Int_Tables_number  25
_chemical_formula_structural  BaSrErCu3O7
_chemical_formula_sum  BaSrErCu3O7
_cell_volume  168.93724092784657
_cell_formula_units_Z  1
loop_
  _symmetry_equiv_pos_site_id
 _symmetry_equiv_pos_as_xyz
 1  'x, y, z'
loop_
 _atom_site_type_symbol
 _atom_site_label
 _atom_site_symmetry_multiplicity
 _atom_site_fract_x
 _atom_site_fract_y
 _atom_site_fract_z
 _atom_site_fract_occupancy
 Ba  Ba1  1  0.50000  0.50000  0.18031  1
 Cu  Cu1  1  0.00000  0.00000  0.35670  1
 Cu  Cu2  1  0.00000  0.00000  0.65137  1
 Cu  Cu3  1  0.00000  0.00000  0.99507  1
 Er  Er1  1  0.50000  0.50000  0.50389  1
 O  O1  1  0.00000  0.00000  0.15781  1
 O  O2  1  0.00000  0.00000  0.83319  1
 O  O3  1  0.50000  0.00000  0.38450  1
 O  O4  1  0.50000  0.00000  0.62283  1
 O  O5  1  0.00000  0.50000  0.38151  1
 O  O6  1  0.00000  0.50000  0.62847  1
 O  O7  1  0.00000  0.50000  0.98637  1
 Sr  Sr1  1  0.50000  0.50000  0.81798  1
