CIF file written using JARVIS-Tools package.
data_H6C4O
_symmetry_space_group_name_H-M  'P2_1'
_cell_length_a       7.60515
_cell_length_b       6.25732
_cell_length_c       7.52989
_cell_angle_alpha    90
_cell_angle_beta     102.297
_cell_angle_gamma    90

_symmetry_Int_Tables_number  4
_chemical_formula_structural  H6C4O
_chemical_formula_sum  H24C6O4
_cell_volume  350.1096550209625
_cell_formula_units_Z  4
loop_
  _symmetry_equiv_pos_site_id
 _symmetry_equiv_pos_as_xyz
 1  'x, y, z'
loop_
 _atom_site_type_symbol
 _atom_site_label
 _atom_site_symmetry_multiplicity
 _atom_site_fract_x
 _atom_site_fract_y
 _atom_site_fract_z
 _atom_site_fract_occupancy
 C  C1  1  0.24571  0.14706  0.90494  1
 C  C2  1  0.12386  0.05031  0.57850  1
 C  C3  1  0.61677  0.27480  0.67766  1
 C  C4  1  0.38323  0.77480  0.32234  1
 C  C5  1  0.64558  0.58294  0.90799  1
 C  C6  1  0.35442  0.08294  0.09201  1
 C  C7  1  0.75429  0.64706  0.09506  1
 C  C8  1  0.14999  0.76784  0.82254  1
 C  C9  1  0.85001  0.26784  0.17746  1
 C  C10  1  0.78440  0.21888  0.98108  1
 C  C11  1  0.21560  0.71888  0.01892  1
 C  C12  1  0.69016  0.35776  0.85868  1
 C  C13  1  0.30984  0.85776  0.14132  1
 C  C14  1  0.76661  0.47167  0.23916  1
 C  C15  1  0.23339  0.97167  0.76084  1
 C  C16  1  0.87614  0.55031  0.42150  1
 H  H1  1  0.82546  0.12880  0.25925  1
 H  H2  1  0.19194  0.55853  0.06680  1
 H  H3  1  0.69558  0.79251  0.14056  1
 H  H4  1  0.62887  0.43332  0.25441  1
 H  H5  1  0.30442  0.29251  0.85944  1
 H  H6  1  0.66640  0.11569  0.64654  1
 H  H7  1  0.39748  0.22920  0.33760  1
 H  H8  1  0.18178  0.19654  0.53444  1
 H  H9  1  0.88264  0.43040  0.52916  1
 H  H10  1  0.11736  0.93040  0.47084  1
 H  H11  1  0.01536  0.58447  0.40983  1
 H  H12  1  0.98464  0.08447  0.59017  1
 H  H13  1  0.37113  0.93332  0.74559  1
 H  H14  1  0.33360  0.61569  0.35346  1
 H  H15  1  0.50025  0.59114  0.90737  1
 H  H16  1  0.49975  0.09114  0.09263  1
 H  H17  1  0.81822  0.69654  0.46556  1
 H  H18  1  0.10869  0.18904  0.91987  1
 H  H19  1  0.89131  0.68904  0.08013  1
 H  H20  1  0.80806  0.05853  0.93320  1
 H  H21  1  -0.00126  0.28137  0.20448  1
 H  H22  1  0.17454  0.62880  0.74075  1
 H  H23  1  0.00126  0.78137  0.79552  1
 H  H24  1  0.60252  0.72920  0.66240  1
 O  O1  1  0.49945  0.86790  0.43724  1
 O  O2  1  0.50055  0.36790  0.56276  1
 O  O3  1  0.31226  0.23750  0.21878  1
 O  O4  1  0.68774  0.73750  0.78122  1
