CIF file written using JARVIS-Tools package.
data_Bi4O5
_symmetry_space_group_name_H-M  'Cc'
_cell_length_a       7.9785
_cell_length_b       7.9785
_cell_length_c       5.46464
_cell_angle_alpha    83.1016
_cell_angle_beta     83.1016
_cell_angle_gamma    93.8962

_symmetry_Int_Tables_number  9
_chemical_formula_structural  Bi4O5
_chemical_formula_sum  Bi8O0
_cell_volume  341.641079324568
_cell_formula_units_Z  2
loop_
  _symmetry_equiv_pos_site_id
 _symmetry_equiv_pos_as_xyz
 1  'x, y, z'
loop_
 _atom_site_type_symbol
 _atom_site_label
 _atom_site_symmetry_multiplicity
 _atom_site_fract_x
 _atom_site_fract_y
 _atom_site_fract_z
 _atom_site_fract_occupancy
 Bi  Bi1  1  0.72799  0.06020  0.75882  1
 Bi  Bi2  1  0.74252  0.54877  0.77526  1
 Bi  Bi3  1  0.21566  -0.03295  0.74446  1
 Bi  Bi4  1  0.27012  0.46145  0.74174  1
 Bi  Bi5  1  0.46145  0.27012  0.24174  1
 Bi  Bi6  1  -0.03295  0.21566  0.24446  1
 Bi  Bi7  1  0.54877  0.74252  0.27526  1
 Bi  Bi8  1  0.06020  0.72799  0.25882  1
 O  O1  1  0.72653  0.28353  0.01723  1
 O  O2  1  0.96931  0.04942  0.91460  1
 O  O3  1  0.04942  0.96931  0.41460  1
 O  O4  1  0.52522  0.48399  0.50913  1
 O  O5  1  0.20064  0.35047  0.40783  1
 O  O6  1  0.28353  0.72653  0.51723  1
 O  O7  1  0.35047  0.20064  0.90783  1
 O  O8  1  0.48399  0.52522  0.00913  1
 O  O9  1  0.80341  0.67271  0.09792  1
 O  O10  1  0.67271  0.80341  0.59792  1
