CIF file written using JARVIS-Tools package.
data_BaSr4Fe5O10
_symmetry_space_group_name_H-M  'P4/mmm'
_cell_length_a       3.8946
_cell_length_b       3.8946
_cell_length_c       17.9678
_cell_angle_alpha    90
_cell_angle_beta     90
_cell_angle_gamma    90

_symmetry_Int_Tables_number  123
_chemical_formula_structural  BaSr4Fe5O10
_chemical_formula_sum  BaSr4Fe5O0
_cell_volume  272.5345426038114
_cell_formula_units_Z  1
loop_
  _symmetry_equiv_pos_site_id
 _symmetry_equiv_pos_as_xyz
 1  'x, y, z'
loop_
 _atom_site_type_symbol
 _atom_site_label
 _atom_site_symmetry_multiplicity
 _atom_site_fract_x
 _atom_site_fract_y
 _atom_site_fract_z
 _atom_site_fract_occupancy
 Ba  Ba1  1  0.50000  0.50000  0.00000  1
 Fe  Fe1  1  0.00000  0.00000  0.88660  1
 Fe  Fe2  1  0.00000  0.00000  0.69437  1
 Fe  Fe3  1  0.00000  0.00000  0.30563  1
 Fe  Fe4  1  0.00000  0.00000  0.50000  1
 Fe  Fe5  1  0.00000  0.00000  0.11340  1
 O  O1  1  0.50000  0.00000  0.30576  1
 O  O2  1  0.50000  0.00000  0.50000  1
 O  O3  1  0.00000  0.50000  0.88762  1
 O  O4  1  0.00000  0.50000  0.11238  1
 O  O5  1  0.00000  0.50000  0.30576  1
 O  O6  1  0.00000  0.50000  0.50000  1
 O  O7  1  0.00000  0.50000  0.69424  1
 O  O8  1  0.50000  0.00000  0.88762  1
 O  O9  1  0.50000  0.00000  0.11238  1
 O  O10  1  0.50000  0.00000  0.69424  1
 Sr  Sr1  1  0.50000  0.50000  0.59738  1
 Sr  Sr2  1  0.50000  0.50000  0.40262  1
 Sr  Sr3  1  0.50000  0.50000  0.20753  1
 Sr  Sr4  1  0.50000  0.50000  0.79247  1
