CIF file written using JARVIS-Tools package.
data_H8C5O2
_symmetry_space_group_name_H-M  'P2_1'
_cell_length_a       5.60467
_cell_length_b       14.621
_cell_length_c       6.24679
_cell_angle_alpha    90
_cell_angle_beta     112.228
_cell_angle_gamma    90

_symmetry_Int_Tables_number  4
_chemical_formula_structural  H8C5O2
_chemical_formula_sum  H32C20O8
_cell_volume  473.8552405290955
_cell_formula_units_Z  4
loop_
  _symmetry_equiv_pos_site_id
 _symmetry_equiv_pos_as_xyz
 1  'x, y, z'
loop_
 _atom_site_type_symbol
 _atom_site_label
 _atom_site_symmetry_multiplicity
 _atom_site_fract_x
 _atom_site_fract_y
 _atom_site_fract_z
 _atom_site_fract_occupancy
 C  C1  1  0.20687  0.03934  0.40790  1
 C  C2  1  0.66868  0.92769  0.90628  1
 C  C3  1  0.79313  0.53934  0.59210  1
 C  C4  1  0.49848  0.47415  0.98781  1
 C  C5  1  0.39813  0.79847  0.40209  1
 C  C6  1  0.60187  0.29847  0.59791  1
 C  C7  1  0.50152  0.97415  0.01219  1
 C  C8  1  0.58522  0.20526  0.70795  1
 C  C9  1  0.41478  0.70526  0.29205  1
 C  C10  1  0.33132  0.42769  0.09372  1
 C  C11  1  0.79689  0.78599  0.79031  1
 C  C12  1  0.20311  0.28599  0.20969  1
 C  C13  1  0.23156  0.18354  0.17669  1
 C  C14  1  0.76844  0.68354  0.82331  1
 C  C15  1  0.30246  0.30092  0.47318  1
 C  C16  1  0.69754  0.80092  0.52682  1
 C  C17  1  0.28428  0.20454  0.57634  1
 C  C18  1  0.71572  0.70454  0.42366  1
 C  C19  1  0.15455  0.14139  0.36606  1
 C  C20  1  0.84545  0.64139  0.63394  1
 H  H1  1  0.69380  0.44541  0.05424  1
 H  H2  1  0.75665  0.08020  0.74466  1
 H  H3  1  0.89978  0.50205  0.75229  1
 H  H4  1  0.30620  0.94541  0.94576  1
 H  H5  1  0.50345  0.54774  0.01973  1
 H  H6  1  0.41432  0.46355  0.79966  1
 H  H7  1  0.24335  0.58020  0.25534  1
 H  H8  1  0.49655  0.04774  0.98027  1
 H  H9  1  0.41232  0.02342  0.46188  1
 H  H10  1  0.58768  0.52342  0.53812  1
 H  H11  1  0.86085  0.51551  0.45755  1
 H  H12  1  0.63948  0.20782  0.89624  1
 H  H13  1  0.36052  0.70782  0.10376  1
 H  H14  1  0.00234  0.30840  0.12667  1
 H  H15  1  -0.00234  0.80840  0.87333  1
 H  H16  1  0.43306  0.16776  0.20694  1
 H  H17  1  0.58568  0.96355  0.20034  1
 H  H18  1  0.10829  0.15919  0.00434  1
 H  H19  1  0.89171  0.65919  0.99566  1
 H  H20  1  0.20505  0.35789  0.52032  1
 H  H21  1  0.56694  0.66776  0.79306  1
 H  H22  1  0.18120  0.20151  0.69427  1
 H  H23  1  0.81880  0.70151  0.30573  1
 H  H24  1  0.13915  0.01551  0.54245  1
 H  H25  1  0.17403  0.64507  0.58090  1
 H  H26  1  0.82597  0.14507  0.41910  1
 H  H27  1  0.10022  0.00205  0.24771  1
 H  H28  1  0.29542  0.79438  0.52082  1
 H  H29  1  0.70458  0.29438  0.47918  1
 H  H30  1  0.31327  0.85380  0.27837  1
 H  H31  1  0.79495  0.85789  0.47968  1
 H  H32  1  0.68673  0.35380  0.72163  1
 O  O1  1  0.64593  0.83639  0.90157  1
 O  O2  1  0.35407  0.33639  0.09843  1
 O  O3  1  0.12207  0.65650  0.71385  1
 O  O4  1  0.81639  0.96782  0.83265  1
 O  O5  1  0.26238  0.63722  0.34649  1
 O  O6  1  0.73762  0.13722  0.65351  1
 O  O7  1  0.18361  0.46782  0.16735  1
 O  O8  1  0.87793  0.15650  0.28615  1
