CIF file written using JARVIS-Tools package.
data_H4C7O2
_symmetry_space_group_name_H-M  'P2_1/c'
_cell_length_a       6.00639
_cell_length_b       5.29726
_cell_length_c       15.1141
_cell_angle_alpha    90
_cell_angle_beta     95.9148
_cell_angle_gamma    90

_symmetry_Int_Tables_number  14
_chemical_formula_structural  H4C7O2
_chemical_formula_sum  H6C28O8
_cell_volume  478.32947246817486
_cell_formula_units_Z  4
loop_
  _symmetry_equiv_pos_site_id
 _symmetry_equiv_pos_as_xyz
 1  'x, y, z'
loop_
 _atom_site_type_symbol
 _atom_site_label
 _atom_site_symmetry_multiplicity
 _atom_site_fract_x
 _atom_site_fract_y
 _atom_site_fract_z
 _atom_site_fract_occupancy
 C  C1  1  0.17355  0.69121  0.51024  1
 C  C2  1  0.83098  0.49284  0.56166  1
 C  C3  1  0.17355  0.80879  0.01024  1
 C  C4  1  0.16902  0.50716  0.43834  1
 C  C5  1  0.82645  0.19121  0.98976  1
 C  C6  1  0.83098  0.00716  0.06166  1
 C  C7  1  0.16902  0.99284  0.93834  1
 C  C8  1  0.00124  0.31870  0.42798  1
 C  C9  1  0.99876  0.68130  0.57202  1
 C  C10  1  0.99876  0.81870  0.07202  1
 C  C11  1  0.00124  0.18130  0.92798  1
 C  C12  1  0.00025  0.86016  0.63970  1
 C  C13  1  0.83332  0.64671  0.19787  1
 C  C14  1  -0.00025  0.36016  0.86030  1
 C  C15  1  0.33702  0.98964  0.87891  1
 C  C16  1  0.66298  0.01036  0.12109  1
 C  C17  1  0.00025  0.63984  0.13970  1
 C  C18  1  0.33702  0.51036  0.37891  1
 C  C19  1  0.33378  0.17134  0.81111  1
 C  C20  1  0.66622  0.82866  0.18889  1
 C  C21  1  0.66298  0.48964  0.62109  1
 C  C22  1  0.33378  0.32866  0.31111  1
 C  C23  1  0.16668  0.35329  0.80213  1
 C  C24  1  0.83332  0.85329  0.69787  1
 C  C25  1  0.16668  0.14671  0.30213  1
 C  C26  1  0.66622  0.67134  0.68889  1
 C  C27  1  0.82645  0.30879  0.48976  1
 C  C28  1  -0.00025  0.13984  0.36030  1
 H  H1  1  0.46274  0.16604  0.76555  1
 H  H2  1  0.86910  -0.00335  0.35411  1
 H  H3  1  0.47997  0.79826  0.43644  1
 H  H4  1  0.52003  0.29826  0.06356  1
 H  H5  1  0.47997  0.70174  0.93644  1
 H  H6  1  0.83446  0.99168  0.75127  1
 H  H7  1  0.83446  0.50832  0.25127  1
 H  H8  1  0.16554  0.49168  0.74873  1
 H  H9  1  0.16554  0.00832  0.24873  1
 H  H10  1  0.13090  0.00335  0.64589  1
 H  H11  1  0.13090  0.49665  0.14589  1
 H  H12  1  0.86910  0.50335  0.85411  1
 H  H13  1  0.46274  0.33396  0.26555  1
 H  H14  1  0.53726  0.66604  0.73445  1
 H  H15  1  0.53726  0.83396  0.23445  1
 H  H16  1  0.52003  0.20174  0.56356  1
 O  O1  1  0.49638  0.18224  0.11480  1
 O  O2  1  0.49638  0.31776  0.61480  1
 O  O3  1  0.67611  0.35673  0.98038  1
 O  O4  1  0.32389  0.64327  0.01962  1
 O  O5  1  0.32389  0.85673  0.51962  1
 O  O6  1  0.67611  0.14327  0.48038  1
 O  O7  1  0.50362  0.81776  0.88520  1
 O  O8  1  0.50362  0.68224  0.38520  1
