CIF file written using JARVIS-Tools package.
data_BI3
_symmetry_space_group_name_H-M  'Cm'
_cell_length_a       7.12636
_cell_length_b       6.91505
_cell_length_c       6.91514
_cell_angle_alpha    60.8896
_cell_angle_beta     50.696
_cell_angle_gamma    36.2008

_symmetry_Int_Tables_number  8
_chemical_formula_structural  BI3
_chemical_formula_sum  BI3
_cell_volume  155.51185612583762
_cell_formula_units_Z  1
loop_
  _symmetry_equiv_pos_site_id
 _symmetry_equiv_pos_as_xyz
 1  'x, y, z'
loop_
 _atom_site_type_symbol
 _atom_site_label
 _atom_site_symmetry_multiplicity
 _atom_site_fract_x
 _atom_site_fract_y
 _atom_site_fract_z
 _atom_site_fract_occupancy
 B  B1  1  0.18096  0.23333  0.00578  1
 I  I1  1  0.16197  0.93935  0.00782  1
 I  I2  1  0.16361  0.24892  0.31833  1
 I  I3  1  0.20643  0.52098  0.69278  1
