CIF file written using JARVIS-Tools package.
data_AlCr4AgS8
_symmetry_space_group_name_H-M  'F-43m'
_cell_length_a       7.14084
_cell_length_b       7.14085
_cell_length_c       7.14085
_cell_angle_alpha    60
_cell_angle_beta     60
_cell_angle_gamma    60.0001

_symmetry_Int_Tables_number  216
_chemical_formula_structural  AlCr4AgS8
_chemical_formula_sum  AlCr4AgS8
_cell_volume  257.47433954582016
_cell_formula_units_Z  1
loop_
  _symmetry_equiv_pos_site_id
 _symmetry_equiv_pos_as_xyz
 1  'x, y, z'
loop_
 _atom_site_type_symbol
 _atom_site_label
 _atom_site_symmetry_multiplicity
 _atom_site_fract_x
 _atom_site_fract_y
 _atom_site_fract_z
 _atom_site_fract_occupancy
 Ag  Ag1  1  0.25000  0.25000  0.25000  1
 Al  Al1  1  0.00000  0.00000  0.00000  1
 Cr  Cr1  1  0.62169  0.62169  0.13492  1
 Cr  Cr2  1  0.62169  0.13492  0.62169  1
 Cr  Cr3  1  0.13492  0.62169  0.62169  1
 Cr  Cr4  1  0.62169  0.62169  0.62169  1
 S  S1  1  0.86752  0.86752  0.39745  1
 S  S2  1  0.86752  0.39745  0.86752  1
 S  S3  1  0.39745  0.86752  0.86752  1
 S  S4  1  0.86752  0.86752  0.86752  1
 S  S5  1  0.38950  0.38950  0.83151  1
 S  S6  1  0.38950  0.83151  0.38950  1
 S  S7  1  0.83151  0.38950  0.38950  1
 S  S8  1  0.38950  0.38950  0.38950  1
