CIF file written using JARVIS-Tools package.
data_H12C10O
_symmetry_space_group_name_H-M  'P-1'
_cell_length_a       6.30128
_cell_length_b       7.39551
_cell_length_c       9.22687
_cell_angle_alpha    99.8519
_cell_angle_beta     97.43
_cell_angle_gamma    109.556

_symmetry_Int_Tables_number  2
_chemical_formula_structural  H12C10O
_chemical_formula_sum  H24C20O2
_cell_volume  391.0589315079086
_cell_formula_units_Z  2
loop_
  _symmetry_equiv_pos_site_id
 _symmetry_equiv_pos_as_xyz
 1  'x, y, z'
loop_
 _atom_site_type_symbol
 _atom_site_label
 _atom_site_symmetry_multiplicity
 _atom_site_fract_x
 _atom_site_fract_y
 _atom_site_fract_z
 _atom_site_fract_occupancy
 C  C1  1  0.07057  0.36411  0.23790  1
 C  C2  1  0.34742  0.29562  0.70099  1
 C  C3  1  0.65258  0.70438  0.29901  1
 C  C4  1  0.02578  0.14056  0.82449  1
 C  C5  1  0.97422  0.85944  0.17551  1
 C  C6  1  0.09592  0.20755  0.70465  1
 C  C7  1  0.90408  0.79245  0.29535  1
 C  C8  1  0.07825  0.81105  0.42270  1
 C  C9  1  0.68499  0.28459  0.06265  1
 C  C10  1  0.04967  0.75604  0.55383  1
 C  C11  1  0.16458  0.34257  0.38915  1
 C  C12  1  0.83542  0.65743  0.61085  1
 C  C13  1  0.92943  0.63589  0.76210  1
 C  C14  1  0.83864  0.28906  0.20147  1
 C  C15  1  0.16136  0.71094  0.79853  1
 C  C16  1  0.74960  0.20889  0.32664  1
 C  C17  1  0.25040  0.79111  0.67336  1
 C  C18  1  0.95033  0.24396  0.44617  1
 C  C19  1  0.31501  0.71541  0.93735  1
 C  C20  1  0.92175  0.18895  0.57730  1
 H  H1  1  0.81766  0.56553  0.83303  1
 H  H2  1  0.27378  0.48775  0.46156  1
 H  H3  1  0.14898  0.14915  0.92245  1
 H  H4  1  0.85102  0.85085  0.07755  1
 H  H5  1  0.61667  0.13797  0.98559  1
 H  H6  1  0.77786  0.39112  0.00206  1
 H  H7  1  0.22214  0.60888  -0.00206  1
 H  H8  1  0.53609  0.31862  0.09078  1
 H  H9  1  0.46391  0.68138  0.90922  1
 H  H10  1  0.39156  0.20964  0.60810  1
 H  H11  1  0.60844  0.79036  0.39190  1
 H  H12  1  0.45285  0.29779  0.80582  1
 H  H13  1  0.54715  0.70221  0.19418  1
 H  H14  1  0.39431  0.44706  0.68538  1
 H  H15  1  0.38333  0.86203  0.01441  1
 H  H16  1  0.15643  0.92849  0.17551  1
 H  H17  1  0.84357  0.07151  0.82449  1
 H  H18  1  0.72512  0.74555  0.62101  1
 H  H19  1  0.27488  0.25445  0.37899  1
 H  H20  1  0.72622  0.51225  0.53844  1
 H  H21  1  0.18234  0.43447  0.16697  1
 H  H22  1  0.25660  0.88113  0.41152  1
 H  H23  1  0.74340  0.11887  0.58848  1
 H  H24  1  0.60569  0.55294  0.31462  1
 O  O1  1  0.45790  0.87196  0.67092  1
 O  O2  1  0.54210  0.12804  0.32908  1
