CIF file written using JARVIS-Tools package.
data_MgOsN2
_symmetry_space_group_name_H-M  'Pna2_1'
_cell_length_a       5.4283
_cell_length_b       6.69214
_cell_length_c       5.51262
_cell_angle_alpha    90
_cell_angle_beta     90
_cell_angle_gamma    90

_symmetry_Int_Tables_number  33
_chemical_formula_structural  MgOsN2
_chemical_formula_sum  Mg4Os4N8
_cell_volume  200.2567599150488
_cell_formula_units_Z  4
loop_
  _symmetry_equiv_pos_site_id
 _symmetry_equiv_pos_as_xyz
 1  'x, y, z'
loop_
 _atom_site_type_symbol
 _atom_site_label
 _atom_site_symmetry_multiplicity
 _atom_site_fract_x
 _atom_site_fract_y
 _atom_site_fract_z
 _atom_site_fract_occupancy
 Mg  Mg1  1  0.59720  0.87757  0.99949  1
 Mg  Mg2  1  0.40280  0.12243  0.49949  1
 Mg  Mg3  1  0.90280  0.37757  0.49949  1
 Mg  Mg4  1  0.09720  0.62243  0.99949  1
 N  N1  1  0.54736  0.39735  0.36670  1
 N  N2  1  0.45264  0.60265  0.86670  1
 N  N3  1  0.95264  0.89735  0.86670  1
 N  N4  1  0.04736  0.10265  0.36670  1
 N  N5  1  0.61116  0.88346  0.37848  1
 N  N6  1  0.38884  0.11654  0.87848  1
 N  N7  1  0.88884  0.38346  0.87848  1
 N  N8  1  0.11116  0.61654  0.37848  1
 Os  Os1  1  0.55619  0.34227  0.02533  1
 Os  Os2  1  0.44381  0.65773  0.52533  1
 Os  Os3  1  0.94381  0.84227  0.52533  1
 Os  Os4  1  0.05619  0.15773  0.02533  1
