CIF file written using JARVIS-Tools package.
data_BPbO2
_symmetry_space_group_name_H-M  'R-3m'
_cell_length_a       5.04127
_cell_length_b       5.04127
_cell_length_c       5.04127
_cell_angle_alpha    51.749
_cell_angle_beta     51.749
_cell_angle_gamma    51.7491

_symmetry_Int_Tables_number  166
_chemical_formula_structural  BPbO2
_chemical_formula_sum  BPbO2
_cell_volume  73.00845481736545
_cell_formula_units_Z  1
loop_
  _symmetry_equiv_pos_site_id
 _symmetry_equiv_pos_as_xyz
 1  'x, y, z'
loop_
 _atom_site_type_symbol
 _atom_site_label
 _atom_site_symmetry_multiplicity
 _atom_site_fract_x
 _atom_site_fract_y
 _atom_site_fract_z
 _atom_site_fract_occupancy
 B  B1  1  0.00000  0.00000  0.00000  1
 O  O1  1  0.09760  0.09760  0.09760  1
 O  O2  1  0.90240  0.90240  0.90240  1
 Pb  Pb1  1  0.50000  0.50000  0.50000  1
