CIF file written using JARVIS-Tools package.
data_H4C5O2
_symmetry_space_group_name_H-M  'Pna2_1'
_cell_length_a       19.2643
_cell_length_b       3.68251
_cell_length_c       5.8818
_cell_angle_alpha    90
_cell_angle_beta     90
_cell_angle_gamma    90

_symmetry_Int_Tables_number  33
_chemical_formula_structural  H4C5O2
_chemical_formula_sum  H6C20O8
_cell_volume  417.2593076556353
_cell_formula_units_Z  4
loop_
  _symmetry_equiv_pos_site_id
 _symmetry_equiv_pos_as_xyz
 1  'x, y, z'
loop_
 _atom_site_type_symbol
 _atom_site_label
 _atom_site_symmetry_multiplicity
 _atom_site_fract_x
 _atom_site_fract_y
 _atom_site_fract_z
 _atom_site_fract_occupancy
 C  C1  1  0.70029  0.62498  0.53911  1
 C  C2  1  0.65505  0.55277  0.36904  1
 C  C3  1  0.34495  0.44723  0.86904  1
 C  C4  1  0.79971  0.12498  0.03911  1
 C  C5  1  0.20029  0.87502  0.53911  1
 C  C6  1  0.08421  0.84907  0.39963  1
 C  C7  1  0.29971  0.37502  0.03911  1
 C  C8  1  0.91579  0.15093  0.89963  1
 C  C9  1  0.56294  0.82411  0.59278  1
 C  C10  1  0.41579  0.34907  0.89963  1
 C  C11  1  0.58421  0.65093  0.39963  1
 C  C12  1  0.61138  0.91526  0.76867  1
 C  C13  1  0.88862  0.41526  0.26867  1
 C  C14  1  0.11138  0.58474  0.76867  1
 C  C15  1  0.38862  0.08474  0.26867  1
 C  C16  1  0.93706  0.32411  0.09278  1
 C  C17  1  0.06294  0.67589  0.59278  1
 C  C18  1  0.43706  0.17589  0.09278  1
 C  C19  1  0.84495  0.05277  0.86904  1
 C  C20  1  0.15505  0.94723  0.36904  1
 H  H1  1  0.49086  0.09436  0.11568  1
 H  H2  1  0.17166  0.08298  0.21475  1
 H  H3  1  0.25513  0.94411  0.53919  1
 H  H4  1  0.74487  0.05589  0.03919  1
 H  H5  1  0.75513  0.55589  0.53919  1
 H  H6  1  0.04705  0.91195  0.26593  1
 H  H7  1  0.82834  0.91702  0.71475  1
 H  H8  1  0.67166  0.41702  0.21475  1
 H  H9  1  0.32834  0.58298  0.71475  1
 H  H10  1  0.95295  0.08805  0.76593  1
 H  H11  1  0.54705  0.58805  0.26593  1
 H  H12  1  0.45295  0.41195  0.76593  1
 H  H13  1  0.00914  0.59436  0.61568  1
 H  H14  1  0.99086  0.40564  0.11568  1
 H  H15  1  0.50914  0.90564  0.61568  1
 H  H16  1  0.24487  0.44411  0.03919  1
 O  O1  1  0.10093  0.41132  0.94403  1
 O  O2  1  0.31954  0.20556  0.23412  1
 O  O3  1  0.89907  0.58868  0.44403  1
 O  O4  1  0.68046  0.79444  0.73412  1
 O  O5  1  0.39907  0.91132  0.44403  1
 O  O6  1  0.81954  0.29444  0.23412  1
 O  O7  1  0.60093  0.08868  0.94403  1
 O  O8  1  0.18046  0.70556  0.73412  1
