CIF file written using JARVIS-Tools package.
data_MgTa4O12
_symmetry_space_group_name_H-M  'Im-3'
_cell_length_a       6.82761
_cell_length_b       6.82742
_cell_length_c       6.82758
_cell_angle_alpha    109.471
_cell_angle_beta     109.472
_cell_angle_gamma    109.47

_symmetry_Int_Tables_number  204
_chemical_formula_structural  MgTa4O12
_chemical_formula_sum  MgTa4O2
_cell_volume  245.00609467082876
_cell_formula_units_Z  1
loop_
  _symmetry_equiv_pos_site_id
 _symmetry_equiv_pos_as_xyz
 1  'x, y, z'
loop_
 _atom_site_type_symbol
 _atom_site_label
 _atom_site_symmetry_multiplicity
 _atom_site_fract_x
 _atom_site_fract_y
 _atom_site_fract_z
 _atom_site_fract_occupancy
 Mg  Mg1  1  1.00000  -0.00000  -0.00000  1
 O  O1  1  0.23602  0.98933  0.75331  1
 O  O2  1  0.01067  0.24669  0.76399  1
 O  O3  1  0.23602  0.48271  0.24669  1
 O  O4  1  0.98933  0.75331  0.23601  1
 O  O5  1  0.24669  0.76399  0.01068  1
 O  O6  1  0.24671  0.23602  0.48273  1
 O  O7  1  0.51727  0.75330  0.76397  1
 O  O8  1  0.75329  0.76398  0.51727  1
 O  O9  1  0.75331  0.23601  0.98932  1
 O  O10  1  0.76398  0.51729  0.75331  1
 O  O11  1  0.48273  0.24671  0.23603  1
 O  O12  1  0.76398  0.01068  0.24669  1
 Ta  Ta1  1  0.50000  -0.00000  -0.00000  1
 Ta  Ta2  1  0.50000  0.50000  0.50000  1
 Ta  Ta3  1  -0.00000  -0.00000  0.50000  1
 Ta  Ta4  1  1.00000  0.50000  -0.00000  1
