CIF file written using JARVIS-Tools package.
data_H10C8O3
_symmetry_space_group_name_H-M  'P2_1'
_cell_length_a       4.40644
_cell_length_b       6.78181
_cell_length_c       11.8704
_cell_angle_alpha    90
_cell_angle_beta     93.8369
_cell_angle_gamma    90

_symmetry_Int_Tables_number  4
_chemical_formula_structural  H10C8O3
_chemical_formula_sum  H20C6O6
_cell_volume  353.9368372970067
_cell_formula_units_Z  2
loop_
  _symmetry_equiv_pos_site_id
 _symmetry_equiv_pos_as_xyz
 1  'x, y, z'
loop_
 _atom_site_type_symbol
 _atom_site_label
 _atom_site_symmetry_multiplicity
 _atom_site_fract_x
 _atom_site_fract_y
 _atom_site_fract_z
 _atom_site_fract_occupancy
 C  C1  1  0.12349  0.85088  0.61514  1
 C  C2  1  0.56922  0.60294  0.93620  1
 C  C3  1  0.43078  0.10294  0.06380  1
 C  C4  1  0.76020  0.75477  0.88436  1
 C  C5  1  0.23980  0.25477  0.11564  1
 C  C6  1  0.83042  0.74781  0.77523  1
 C  C7  1  0.16958  0.24781  0.22477  1
 C  C8  1  0.87651  0.35088  0.38486  1
 C  C9  1  0.71160  0.51862  0.42142  1
 C  C10  1  0.97932  0.38396  0.27983  1
 C  C11  1  0.14734  0.07854  0.76886  1
 C  C12  1  0.85266  0.57854  0.23114  1
 C  C13  1  0.24489  0.18562  0.66245  1
 C  C14  1  0.75511  0.68562  0.33755  1
 C  C15  1  0.28840  0.01862  0.57858  1
 C  C16  1  0.02068  0.88396  0.72017  1
 H  H1  1  0.53358  0.38561  0.61182  1
 H  H2  1  0.78489  0.24047  0.78507  1
 H  H3  1  0.28256  0.00617  0.00954  1
 H  H4  1  0.71744  0.50617  0.99046  1
 H  H5  1  0.40744  0.66996  0.99160  1
 H  H6  1  0.59256  0.16996  0.00840  1
 H  H7  1  0.85070  0.87323  0.93898  1
 H  H8  1  0.14930  0.37323  0.06102  1
 H  H9  1  0.73853  0.62685  0.72277  1
 H  H10  1  0.21511  0.74047  0.21493  1
 H  H11  1  0.90824  0.21549  0.43289  1
 H  H12  1  0.35377  0.04474  0.82303  1
 H  H13  1  0.26147  0.12685  0.27723  1
 H  H14  1  0.09176  0.71549  0.56711  1
 H  H15  1  -0.04872  0.77413  0.37153  1
 H  H16  1  0.04872  0.27413  0.62847  1
 H  H17  1  0.55491  0.01100  0.12754  1
 H  H18  1  0.44509  0.51100  0.87246  1
 H  H19  1  0.46642  0.88561  0.38818  1
 H  H20  1  0.64623  0.54474  0.17697  1
 O  O1  1  0.50315  0.30848  0.68281  1
 O  O2  1  0.04489  0.69022  0.16377  1
 O  O3  1  0.56204  0.53977  0.50650  1
 O  O4  1  0.43796  0.03977  0.49350  1
 O  O5  1  0.49685  0.80848  0.31719  1
 O  O6  1  0.95511  0.19022  0.83623  1
