CIF file written using JARVIS-Tools package.
data_Rb2BO2
_symmetry_space_group_name_H-M  'I4/mmm'
_cell_length_a       8.52769
_cell_length_b       8.52769
_cell_length_c       8.52769
_cell_angle_alpha    152.612
_cell_angle_beta     152.612
_cell_angle_gamma    39.1205

_symmetry_Int_Tables_number  139
_chemical_formula_structural  Rb2BO2
_chemical_formula_sum  Rb2BO2
_cell_volume  131.0010164584691
_cell_formula_units_Z  1
loop_
  _symmetry_equiv_pos_site_id
 _symmetry_equiv_pos_as_xyz
 1  'x, y, z'
loop_
 _atom_site_type_symbol
 _atom_site_label
 _atom_site_symmetry_multiplicity
 _atom_site_fract_x
 _atom_site_fract_y
 _atom_site_fract_z
 _atom_site_fract_occupancy
 B  B1  1  0.00000  0.00000  0.00000  1
 O  O1  1  0.92073  0.92073  -0.00000  1
 O  O2  1  0.07927  0.07927  -0.00000  1
 Rb  Rb1  1  0.36531  0.36531  -0.00000  1
 Rb  Rb2  1  0.63469  0.63469  0.00000  1
