CIF file written using JARVIS-Tools package.
data_H7C3O3
_symmetry_space_group_name_H-M  'P2_1'
_cell_length_a       4.9267
_cell_length_b       18.1387
_cell_length_c       4.85758
_cell_angle_alpha    90
_cell_angle_beta     118.387
_cell_angle_gamma    90

_symmetry_Int_Tables_number  4
_chemical_formula_structural  H7C3O3
_chemical_formula_sum  H28C2O2
_cell_volume  381.8969790123456
_cell_formula_units_Z  4
loop_
  _symmetry_equiv_pos_site_id
 _symmetry_equiv_pos_as_xyz
 1  'x, y, z'
loop_
 _atom_site_type_symbol
 _atom_site_label
 _atom_site_symmetry_multiplicity
 _atom_site_fract_x
 _atom_site_fract_y
 _atom_site_fract_z
 _atom_site_fract_occupancy
 C  C1  1  0.38042  0.68339  0.58950  1
 C  C2  1  0.66899  0.32405  0.41289  1
 C  C3  1  0.64833  0.46398  0.37710  1
 C  C4  1  0.35167  0.96398  0.62290  1
 C  C5  1  0.64897  0.39206  0.21509  1
 C  C6  1  0.35103  0.89206  0.78491  1
 C  C7  1  0.33101  0.82405  0.58711  1
 C  C8  1  0.35080  0.75165  0.76049  1
 C  C9  1  0.61958  0.18339  0.41050  1
 C  C10  1  0.62181  0.11188  0.24579  1
 C  C11  1  0.37819  0.61188  0.75421  1
 C  C12  1  0.64920  0.25165  0.23951  1
 H  H1  1  0.85972  0.24703  0.21466  1
 H  H2  1  0.14028  0.74703  0.78534  1
 H  H3  1  0.39565  0.18605  0.40974  1
 H  H4  1  0.67067  0.51017  0.24248  1
 H  H5  1  0.38474  0.56517  0.61371  1
 H  H6  1  0.57419  0.96937  0.62175  1
 H  H7  1  0.10736  0.82527  0.37214  1
 H  H8  1  0.89264  0.32527  0.62786  1
 H  H9  1  0.60435  0.68605  0.59026  1
 H  H10  1  0.43186  0.39027  0.99177  1
 H  H11  1  0.12955  0.63058  -0.02400  1
 H  H12  1  0.87045  0.13058  0.02400  1
 H  H13  1  0.04985  0.20611  0.77899  1
 H  H14  1  0.56814  0.89027  0.00823  1
 H  H15  1  0.42892  0.27847  0.78047  1
 H  H16  1  0.76304  0.84927  0.64779  1
 H  H17  1  0.23696  0.34927  0.35221  1
 H  H18  1  0.12728  0.91944  0.03170  1
 H  H19  1  0.87272  0.41944  0.96830  1
 H  H20  1  0.57108  0.77847  0.21953  1
 H  H21  1  0.97819  0.51821  0.74238  1
 H  H22  1  0.58497  0.60976  -0.01477  1
 H  H23  1  0.41503  0.10976  0.01477  1
 H  H24  1  -0.04985  0.70611  0.22101  1
 H  H25  1  0.61526  0.06517  0.38629  1
 H  H26  1  0.32933  0.01017  0.75752  1
 H  H27  1  0.42581  0.46937  0.37825  1
 H  H28  1  0.02181  0.01821  0.25762  1
 O  O1  1  0.90528  0.38807  0.15177  1
 O  O2  1  0.43892  0.32812  0.51290  1
 O  O3  1  0.56108  0.82812  0.48710  1
 O  O4  1  0.38434  0.25070  0.93370  1
 O  O5  1  0.61566  0.75070  0.06630  1
 O  O6  1  0.89968  0.46623  0.69172  1
 O  O7  1  0.89657  0.10313  0.21420  1
 O  O8  1  0.10343  0.60313  0.78580  1
 O  O9  1  0.10032  0.96623  0.30828  1
 O  O10  1  0.85090  0.18189  0.73406  1
 O  O11  1  0.14910  0.68189  0.26594  1
 O  O12  1  0.09472  0.88807  0.84823  1
