CIF file written using JARVIS-Tools package.
data_DyMg2Ti3S8
_symmetry_space_group_name_H-M  'R-3m'
_cell_length_a       7.55418
_cell_length_b       7.55387
_cell_length_c       7.55385
_cell_angle_alpha    58.0415
_cell_angle_beta     58.039
_cell_angle_gamma    58.0377

_symmetry_Int_Tables_number  166
_chemical_formula_structural  DyMg2Ti3S8
_chemical_formula_sum  DyMg2Ti3S8
_cell_volume  291.09141054971025
_cell_formula_units_Z  1
loop_
  _symmetry_equiv_pos_site_id
 _symmetry_equiv_pos_as_xyz
 1  'x, y, z'
loop_
 _atom_site_type_symbol
 _atom_site_label
 _atom_site_symmetry_multiplicity
 _atom_site_fract_x
 _atom_site_fract_y
 _atom_site_fract_z
 _atom_site_fract_occupancy
 Dy  Dy1  1  0.49999  0.50000  0.49999  1
 Mg  Mg1  1  0.87176  0.87175  0.87176  1
 Mg  Mg2  1  0.12824  0.12825  0.12825  1
 S  S1  1  0.74075  0.74076  0.74076  1
 S  S2  1  0.24581  0.24584  0.72845  1
 S  S3  1  0.24581  0.72845  0.24583  1
 S  S4  1  0.72844  0.24581  0.24581  1
 S  S5  1  0.75418  0.27155  0.75416  1
 S  S6  1  0.27156  0.75419  0.75418  1
 S  S7  1  0.25926  0.25925  0.25925  1
 S  S8  1  0.75418  0.75416  0.27156  1
 Ti  Ti1  1  0.50002  0.50001  0.99997  1
 Ti  Ti2  1  0.99998  0.50001  0.50002  1
 Ti  Ti3  1  0.50001  0.99998  0.50002  1
