CIF file written using JARVIS-Tools package.
data_H8C4O
_symmetry_space_group_name_H-M  'Pna2_1'
_cell_length_a       4.89911
_cell_length_b       8.19196
_cell_length_c       9.69903
_cell_angle_alpha    90
_cell_angle_beta     90
_cell_angle_gamma    90

_symmetry_Int_Tables_number  33
_chemical_formula_structural  H8C4O
_chemical_formula_sum  H32C6O4
_cell_volume  389.2537221811843
_cell_formula_units_Z  4
loop_
  _symmetry_equiv_pos_site_id
 _symmetry_equiv_pos_as_xyz
 1  'x, y, z'
loop_
 _atom_site_type_symbol
 _atom_site_label
 _atom_site_symmetry_multiplicity
 _atom_site_fract_x
 _atom_site_fract_y
 _atom_site_fract_z
 _atom_site_fract_occupancy
 C  C1  1  0.42378  0.57946  0.88730  1
 C  C2  1  0.22911  0.43058  0.90355  1
 C  C3  1  0.92378  0.92054  0.88730  1
 C  C4  1  0.77089  0.56942  0.40355  1
 C  C5  1  0.72911  0.06942  0.90355  1
 C  C6  1  0.27089  0.93058  0.40355  1
 C  C7  1  0.57622  0.42054  0.38730  1
 C  C8  1  0.87564  0.53488  0.25542  1
 C  C9  1  0.07622  0.07946  0.38730  1
 C  C10  1  0.87895  0.92751  0.72839  1
 C  C11  1  0.12105  0.07249  0.22839  1
 C  C12  1  0.12436  0.46512  0.75542  1
 C  C13  1  0.62436  0.03488  0.75542  1
 C  C14  1  0.37564  0.96512  0.25542  1
 C  C15  1  0.37895  0.57249  0.72839  1
 C  C16  1  0.62105  0.42751  0.22839  1
 H  H1  1  0.34855  0.68747  0.67216  1
 H  H2  1  0.65145  0.31253  0.17216  1
 H  H3  1  0.96206  0.00125  0.17623  1
 H  H4  1  0.56315  0.03809  0.25629  1
 H  H5  1  0.24697  0.26598  0.66054  1
 H  H6  1  0.84855  0.81253  0.67216  1
 H  H7  1  0.03794  -0.00125  0.67623  1
 H  H8  1  0.25303  0.76598  0.16054  1
 H  H9  1  0.15145  0.18747  0.17216  1
 H  H10  1  0.83872  0.80954  0.93307  1
 H  H11  1  0.65770  0.68507  0.40716  1
 H  H12  1  0.84230  0.18507  0.90716  1
 H  H13  1  0.15770  0.81493  0.40716  1
 H  H14  1  0.07897  0.43427  0.98743  1
 H  H15  1  0.92103  0.56573  0.48743  1
 H  H16  1  0.42103  0.93427  0.48743  1
 H  H17  1  0.33872  0.69046  0.93307  1
 H  H18  1  0.66128  0.30954  0.43307  1
 H  H19  1  0.75303  0.73402  0.16054  1
 H  H20  1  0.16128  0.19046  0.43307  1
 H  H21  1  0.63284  0.56353  0.92517  1
 H  H22  1  0.36716  0.43647  0.42517  1
 H  H23  1  0.13284  0.93647  0.92517  1
 H  H24  1  0.86716  0.06353  0.42517  1
 H  H25  1  0.57897  0.06573  0.98743  1
 H  H26  1  0.46206  0.49875  0.17623  1
 H  H27  1  0.53794  0.50125  0.67623  1
 H  H28  1  0.43685  0.96191  0.75629  1
 H  H29  1  0.06315  0.46191  0.25629  1
 H  H30  1  0.93685  0.53809  0.75629  1
 H  H31  1  0.74697  0.23402  0.66054  1
 H  H32  1  0.34230  0.31493  0.90716  1
 O  O1  1  0.42559  0.83014  0.16497  1
 O  O2  1  0.57441  0.16986  0.66497  1
 O  O3  1  0.92559  0.66986  0.16497  1
 O  O4  1  0.07441  0.33014  0.66497  1
