CIF file written using JARVIS-Tools package.
data_H14C6O5
_symmetry_space_group_name_H-M  'C2'
_cell_length_a       6.39112
_cell_length_b       6.39111
_cell_length_c       5.01129
_cell_angle_alpha    102.204
_cell_angle_beta     102.204
_cell_angle_gamma    69.1402

_symmetry_Int_Tables_number  5
_chemical_formula_structural  H14C6O5
_chemical_formula_sum  H4C6O5
_cell_volume  184.86536007798165
_cell_formula_units_Z  1
loop_
  _symmetry_equiv_pos_site_id
 _symmetry_equiv_pos_as_xyz
 1  'x, y, z'
loop_
 _atom_site_type_symbol
 _atom_site_label
 _atom_site_symmetry_multiplicity
 _atom_site_fract_x
 _atom_site_fract_y
 _atom_site_fract_z
 _atom_site_fract_occupancy
 C  C1  1  0.90168  0.94685  0.46360  1
 C  C2  1  0.05315  0.09832  0.53640  1
 C  C3  1  0.93325  0.33107  0.68587  1
 C  C4  1  0.66893  0.06675  0.31413  1
 C  C5  1  0.70134  0.44757  0.52702  1
 C  C6  1  0.55243  0.29866  0.47298  1
 H  H1  1  0.21125  0.01440  0.66662  1
 H  H2  1  0.72121  0.47864  0.32620  1
 H  H3  1  0.04152  0.43775  0.72021  1
 H  H4  1  0.56225  0.95848  0.27979  1
 H  H5  1  0.98560  0.78875  0.33338  1
 H  H6  1  0.68848  0.09025  0.11072  1
 H  H7  1  0.40844  0.68356  0.89011  1
 H  H8  1  0.52136  0.27879  0.67380  1
 H  H9  1  0.18688  0.97589  0.18593  1
 H  H10  1  0.02411  0.81312  0.81407  1
 H  H11  1  0.68700  0.75938  0.70652  1
 H  H12  1  0.24062  0.31300  0.29348  1
 H  H13  1  0.31644  0.59156  0.10989  1
 H  H14  1  0.90975  0.31152  0.88928  1
 O  O1  1  0.87139  0.89204  0.71548  1
 O  O2  1  0.58969  0.66185  0.68315  1
 O  O3  1  0.28326  0.71674  0.00000  1
 O  O4  1  0.10796  0.12861  0.28452  1
 O  O5  1  0.33815  0.41031  0.31685  1
