CIF file written using JARVIS-Tools package.
data_LiVC2O6
_symmetry_space_group_name_H-M  'C2'
_cell_length_a       4.62088
_cell_length_b       6.9428
_cell_length_c       6.9428
_cell_angle_alpha    68.9834
_cell_angle_beta     109.63
_cell_angle_gamma    109.63

_symmetry_Int_Tables_number  5
_chemical_formula_structural  LiVC2O6
_chemical_formula_sum  Li2V2C4O2
_cell_volume  189.86494749370527
_cell_formula_units_Z  2
loop_
  _symmetry_equiv_pos_site_id
 _symmetry_equiv_pos_as_xyz
 1  'x, y, z'
loop_
 _atom_site_type_symbol
 _atom_site_label
 _atom_site_symmetry_multiplicity
 _atom_site_fract_x
 _atom_site_fract_y
 _atom_site_fract_z
 _atom_site_fract_occupancy
 C  C1  1  0.12101  0.12040  0.11912  1
 C  C2  1  0.62102  0.62040  0.61913  1
 C  C3  1  0.37898  0.38087  0.37960  1
 C  C4  1  0.87899  0.88088  0.87960  1
 Li  Li1  1  0.74999  0.08254  0.41745  1
 Li  Li2  1  0.25001  0.58255  0.91746  1
 O  O1  1  0.52663  0.52042  0.23941  1
 O  O2  1  0.97336  0.26059  0.97958  1
 O  O3  1  0.48720  0.47187  0.76166  1
 O  O4  1  0.98719  0.97187  0.26166  1
 O  O5  1  0.02664  0.02042  0.73941  1
 O  O6  1  0.51280  0.23834  0.52813  1
 O  O7  1  0.40403  0.12799  0.11289  1
 O  O8  1  0.59597  0.88711  0.87201  1
 O  O9  1  0.01281  0.73834  0.02813  1
 O  O10  1  0.90404  0.62799  0.61289  1
 O  O11  1  0.09596  0.38711  0.37201  1
 O  O12  1  0.47337  0.76059  0.47958  1
 V  V1  1  0.00000  0.65980  0.34020  1
 V  V2  1  0.50000  0.15979  0.84021  1
