CIF file written using JARVIS-Tools package.
data_Li3Fe2O6
_symmetry_space_group_name_H-M  'C2/m'
_cell_length_a       4.88577
_cell_length_b       8.45443
_cell_length_c       4.92482
_cell_angle_alpha    73.2648
_cell_angle_beta     99.7699
_cell_angle_gamma    95.5585

_symmetry_Int_Tables_number  12
_chemical_formula_structural  Li3Fe2O6
_chemical_formula_sum  Li6Fe4O2
_cell_volume  191.73654997931158
_cell_formula_units_Z  2
loop_
  _symmetry_equiv_pos_site_id
 _symmetry_equiv_pos_as_xyz
 1  'x, y, z'
loop_
 _atom_site_type_symbol
 _atom_site_label
 _atom_site_symmetry_multiplicity
 _atom_site_fract_x
 _atom_site_fract_y
 _atom_site_fract_z
 _atom_site_fract_occupancy
 Fe  Fe1  1  0.99858  0.83381  0.66617  1
 Fe  Fe2  1  0.00143  0.16620  0.33381  1
 Fe  Fe3  1  0.49858  0.33382  0.16618  1
 Fe  Fe4  1  0.50144  0.66621  0.83381  1
 Li  Li1  1  0.74996  0.24997  0.74997  1
 Li  Li2  1  0.24997  0.74996  0.24997  1
 Li  Li3  1  0.22655  0.42446  0.57561  1
 Li  Li4  1  0.72656  0.92449  0.07549  1
 Li  Li5  1  0.27342  0.07551  0.92450  1
 Li  Li6  1  0.77342  0.57549  0.42458  1
 O  O1  1  0.59152  0.46149  0.81193  1
 O  O2  1  0.14567  0.64562  0.62487  1
 O  O3  1  0.85434  0.35439  0.37513  1
 O  O4  1  0.35434  0.85439  0.87512  1
 O  O5  1  0.64567  0.14562  0.12486  1
 O  O6  1  0.85348  0.72351  0.00303  1
 O  O7  1  0.90850  0.03853  0.68806  1
 O  O8  1  0.40850  0.53853  0.18807  1
 O  O9  1  0.35347  0.22350  0.50304  1
 O  O10  1  0.14654  0.27651  -0.00306  1
 O  O11  1  0.64654  0.77651  0.49695  1
 O  O12  1  0.09151  0.96149  0.31190  1
