CIF file written using JARVIS-Tools package.
data_H10C9O2
_symmetry_space_group_name_H-M  'P2_1'
_cell_length_a       6.17868
_cell_length_b       7.0817
_cell_length_c       8.5499
_cell_angle_alpha    90
_cell_angle_beta     99.6507
_cell_angle_gamma    90

_symmetry_Int_Tables_number  4
_chemical_formula_structural  H10C9O2
_chemical_formula_sum  H20C8O4
_cell_volume  368.8117402075744
_cell_formula_units_Z  2
loop_
  _symmetry_equiv_pos_site_id
 _symmetry_equiv_pos_as_xyz
 1  'x, y, z'
loop_
 _atom_site_type_symbol
 _atom_site_label
 _atom_site_symmetry_multiplicity
 _atom_site_fract_x
 _atom_site_fract_y
 _atom_site_fract_z
 _atom_site_fract_occupancy
 C  C1  1  0.91158  0.64265  0.62079  1
 C  C2  1  0.59967  0.80077  0.38513  1
 C  C3  1  0.43353  0.30545  0.45758  1
 C  C4  1  0.56647  0.80545  0.54242  1
 C  C5  1  0.27660  0.22576  0.33928  1
 C  C6  1  0.72340  0.72576  0.66072  1
 C  C7  1  0.08842  0.14265  0.37921  1
 C  C8  1  0.05730  0.13541  0.53715  1
 C  C9  1  0.40033  0.30077  0.61487  1
 C  C10  1  0.65333  0.55075  0.09058  1
 C  C11  1  0.78618  0.71432  0.34356  1
 C  C12  1  0.96232  0.17252  0.86749  1
 C  C13  1  0.03768  0.67252  0.13251  1
 C  C14  1  0.19497  0.20506  0.83188  1
 C  C15  1  0.80503  0.70506  0.16812  1
 C  C16  1  0.34667  0.05075  0.90942  1
 C  C17  1  0.94270  0.63541  0.46285  1
 C  C18  1  0.21382  0.21432  0.65644  1
 H  H1  1  0.85463  0.28797  0.81630  1
 H  H2  1  0.73984  0.83750  0.11218  1
 H  H3  1  0.96307  0.08402  0.28724  1
 H  H4  1  0.61117  0.27664  0.08407  1
 H  H5  1  0.51986  0.36657  0.70702  1
 H  H6  1  0.48014  0.86657  0.29298  1
 H  H7  1  0.58076  0.37116  0.42772  1
 H  H8  1  0.30111  0.22887  0.21610  1
 H  H9  1  0.69889  0.72887  0.78390  1
 H  H10  1  0.96410  0.17102  -0.00391  1
 H  H11  1  0.38883  0.77664  0.91593  1
 H  H12  1  0.03693  0.58402  0.71276  1
 H  H13  1  0.08990  0.56856  0.43438  1
 H  H14  1  0.91010  0.06856  0.56562  1
 H  H15  1  0.10737  0.53872  0.18192  1
 H  H16  1  0.89263  0.03872  0.81808  1
 H  H17  1  0.14537  0.78797  0.18370  1
 H  H18  1  0.26016  0.33750  0.88782  1
 H  H19  1  0.03590  0.67102  0.00391  1
 H  H20  1  0.41924  0.87116  0.57228  1
 O  O1  1  0.70936  0.37892  0.14281  1
 O  O2  1  0.29064  0.87892  0.85719  1
 O  O3  1  0.49097  0.58028  0.98588  1
 O  O4  1  0.50903  0.08028  0.01412  1
