CIF file written using JARVIS-Tools package.
data_H6C4O3
_symmetry_space_group_name_H-M  'P2_1/c'
_cell_length_a       8.95347
_cell_length_b       4.60583
_cell_length_c       11.2583
_cell_angle_alpha    90
_cell_angle_beta     112.868
_cell_angle_gamma    90

_symmetry_Int_Tables_number  14
_chemical_formula_structural  H6C4O3
_chemical_formula_sum  H24C6O2
_cell_volume  427.78085030314435
_cell_formula_units_Z  4
loop_
  _symmetry_equiv_pos_site_id
 _symmetry_equiv_pos_as_xyz
 1  'x, y, z'
loop_
 _atom_site_type_symbol
 _atom_site_label
 _atom_site_symmetry_multiplicity
 _atom_site_fract_x
 _atom_site_fract_y
 _atom_site_fract_z
 _atom_site_fract_occupancy
 C  C1  1  0.76149  0.66340  0.90184  1
 C  C2  1  0.20635  0.44507  0.64969  1
 C  C3  1  0.23851  0.33660  0.09816  1
 C  C4  1  0.23851  0.16340  0.59816  1
 C  C5  1  0.76149  0.83660  0.40184  1
 C  C6  1  0.79365  0.94507  0.85031  1
 C  C7  1  0.20635  0.05493  0.14969  1
 C  C8  1  0.32818  0.09407  0.84112  1
 C  C9  1  0.79365  0.55493  0.35031  1
 C  C10  1  0.19455  0.16566  0.71656  1
 C  C11  1  0.80545  0.83434  0.28344  1
 C  C12  1  0.67182  0.59407  0.65888  1
 C  C13  1  0.32818  0.40593  0.34112  1
 C  C14  1  0.67182  0.90593  0.15888  1
 C  C15  1  0.80545  0.66566  0.78344  1
 C  C16  1  0.19455  0.33434  0.21656  1
 H  H1  1  0.01536  0.77747  0.27331  1
 H  H2  1  0.36339  0.39113  0.11516  1
 H  H3  1  0.98464  0.22253  0.72669  1
 H  H4  1  0.63661  0.60887  0.88484  1
 H  H5  1  0.85430  0.92644  0.48874  1
 H  H6  1  0.36339  0.10887  0.61516  1
 H  H7  1  0.90858  0.05384  0.90209  1
 H  H8  1  0.09142  0.94616  0.09791  1
 H  H9  1  0.09142  0.55384  0.59791  1
 H  H10  1  0.14570  0.42644  0.01126  1
 H  H11  1  0.69052  0.08388  0.79946  1
 H  H12  1  0.30948  0.91612  0.20054  1
 H  H13  1  0.30948  0.58388  0.70054  1
 H  H14  1  0.69052  0.41612  0.29946  1
 H  H15  1  0.39072  0.64720  0.49343  1
 H  H16  1  0.90858  0.44616  0.40209  1
 H  H17  1  0.60928  0.14720  0.00657  1
 H  H18  1  0.60928  0.35280  0.50657  1
 H  H19  1  0.98464  0.27747  0.22669  1
 H  H20  1  0.14570  0.07356  0.51126  1
 H  H21  1  0.01536  0.72253  0.77331  1
 H  H22  1  0.85430  0.57356  -0.01126  1
 H  H23  1  0.63661  0.89113  0.38484  1
 H  H24  1  0.39072  0.85280  0.99343  1
 O  O1  1  0.03913  0.43759  0.19950  1
 O  O2  1  0.70722  0.10977  0.09116  1
 O  O3  1  0.29278  0.89023  0.90884  1
 O  O4  1  0.70722  0.39023  0.59116  1
 O  O5  1  0.29278  0.60977  0.40884  1
 O  O6  1  0.96087  0.93759  0.30050  1
 O  O7  1  0.46359  0.28638  0.37541  1
 O  O8  1  0.53641  0.71362  0.62459  1
 O  O9  1  0.03913  0.06241  0.69950  1
 O  O10  1  0.53641  0.78638  0.12459  1
 O  O11  1  0.46359  0.21362  0.87541  1
 O  O12  1  0.96087  0.56241  0.80050  1
