CIF file written using JARVIS-Tools package.
data_ScBO
_symmetry_space_group_name_H-M  'Pm'
_cell_length_a       6.47713
_cell_length_b       6.47713
_cell_length_c       4.7626
_cell_angle_alpha    90
_cell_angle_beta     90
_cell_angle_gamma    90

_symmetry_Int_Tables_number  6
_chemical_formula_structural  ScBO
_chemical_formula_sum  ScBO
_cell_volume  199.80614362139755
_cell_formula_units_Z  1
loop_
  _symmetry_equiv_pos_site_id
 _symmetry_equiv_pos_as_xyz
 1  'x, y, z'
loop_
 _atom_site_type_symbol
 _atom_site_label
 _atom_site_symmetry_multiplicity
 _atom_site_fract_x
 _atom_site_fract_y
 _atom_site_fract_z
 _atom_site_fract_occupancy
 B  B1  1  -0.07630  -0.00963  0.00000  1
 O  O1  1  0.23339  -0.00412  0.00000  1
 Sc  Sc1  1  -0.00250  0.27880  0.00000  1
