CIF file written using JARVIS-Tools package.
data_H10C9O2
_symmetry_space_group_name_H-M  'P-1'
_cell_length_a       7.53613
_cell_length_b       7.63517
_cell_length_c       8.01794
_cell_angle_alpha    116.252
_cell_angle_beta     114.06
_cell_angle_gamma    96.1036

_symmetry_Int_Tables_number  2
_chemical_formula_structural  H10C9O2
_chemical_formula_sum  H20C8O4
_cell_volume  353.9118490815571
_cell_formula_units_Z  2
loop_
  _symmetry_equiv_pos_site_id
 _symmetry_equiv_pos_as_xyz
 1  'x, y, z'
loop_
 _atom_site_type_symbol
 _atom_site_label
 _atom_site_symmetry_multiplicity
 _atom_site_fract_x
 _atom_site_fract_y
 _atom_site_fract_z
 _atom_site_fract_occupancy
 C  C1  1  0.30323  0.28929  0.72198  1
 C  C2  1  0.70327  0.37821  0.28263  1
 C  C3  1  0.08005  0.78922  0.82088  1
 C  C4  1  0.91995  0.21078  0.17912  1
 C  C5  1  0.27646  0.95587  0.20723  1
 C  C6  1  0.72354  0.04413  0.79277  1
 C  C7  1  0.69677  0.71071  0.27802  1
 C  C8  1  0.59113  0.84693  0.25971  1
 C  C9  1  0.29673  0.62179  0.71737  1
 C  C10  1  0.39347  0.46101  0.72467  1
 C  C11  1  0.60633  0.18657  0.76426  1
 C  C12  1  0.30576  0.64401  0.23779  1
 C  C13  1  0.69424  0.35599  0.76221  1
 C  C14  1  0.41187  0.50949  0.25819  1
 C  C15  1  0.58813  0.49051  0.74181  1
 C  C16  1  0.60653  0.53899  0.27533  1
 C  C17  1  0.40887  0.15307  0.74029  1
 C  C18  1  0.39367  0.81343  0.23574  1
 H  H1  1  0.66084  0.97808  0.25777  1
 H  H2  1  0.65867  0.62624  0.74698  1
 H  H3  1  0.12602  0.90565  0.19428  1
 H  H4  1  0.58227  0.22282  0.16083  1
 H  H5  1  0.23319  0.60359  0.55732  1
 H  H6  1  0.76681  0.39641  0.44268  1
 H  H7  1  0.94124  0.75328  0.83104  1
 H  H8  1  0.04928  0.83167  0.69950  1
 H  H9  1  0.95072  0.16833  0.30050  1
 H  H10  1  0.84705  0.73455  0.28834  1
 H  H11  1  0.41773  0.77718  0.83917  1
 H  H12  1  0.87398  0.09435  0.80572  1
 H  H13  1  0.63475  0.88281  0.65459  1
 H  H14  1  0.36525  0.11719  0.34541  1
 H  H15  1  0.84868  0.38551  0.78175  1
 H  H16  1  0.15132  0.61449  0.21825  1
 H  H17  1  0.33916  0.02192  0.74223  1
 H  H18  1  0.34133  0.37376  0.25302  1
 H  H19  1  0.15295  0.26545  0.71166  1
 H  H20  1  0.05876  0.24672  0.16896  1
 O  O1  1  0.86886  0.39392  0.23754  1
 O  O2  1  0.13114  0.60608  0.76246  1
 O  O3  1  0.75998  0.03251  0.97967  1
 O  O4  1  0.24002  0.96749  0.02033  1
