CIF file written using JARVIS-Tools package.
data_Ca2Fe3O8
_symmetry_space_group_name_H-M  'C2/m'
_cell_length_a       4.92333
_cell_length_b       5.83209
_cell_length_c       6.19071
_cell_angle_alpha    118.101
_cell_angle_beta     107.327
_cell_angle_gamma    90.0003

_symmetry_Int_Tables_number  12
_chemical_formula_structural  Ca2Fe3O8
_chemical_formula_sum  Ca2Fe3O8
_cell_volume  147.59407180042484
_cell_formula_units_Z  1
loop_
  _symmetry_equiv_pos_site_id
 _symmetry_equiv_pos_as_xyz
 1  'x, y, z'
loop_
 _atom_site_type_symbol
 _atom_site_label
 _atom_site_symmetry_multiplicity
 _atom_site_fract_x
 _atom_site_fract_y
 _atom_site_fract_z
 _atom_site_fract_occupancy
 Ca  Ca1  1  0.66965  0.72454  0.44908  1
 Ca  Ca2  1  0.33035  0.27546  0.55092  1
 Fe  Fe1  1  0.50000  0.00000  -0.00000  1
 Fe  Fe2  1  0.00000  0.74365  0.00000  1
 Fe  Fe3  1  -0.00000  0.25635  1.00000  1
 O  O1  1  0.03617  0.39780  0.79559  1
 O  O2  1  0.96383  0.60220  0.20441  1
 O  O3  1  0.10042  0.90336  0.80671  1
 O  O4  1  0.89958  0.09664  0.19329  1
 O  O5  1  0.38971  0.32085  0.19920  1
 O  O6  1  0.38972  0.87836  0.19921  1
 O  O7  1  0.61028  0.12164  0.80079  1
 O  O8  1  0.61029  0.67915  0.80080  1
