CIF file written using JARVIS-Tools package.
data_LiFePH2O5
_symmetry_space_group_name_H-M  'P1'
_cell_length_a       4.79692
_cell_length_b       5.61256
_cell_length_c       8.89914
_cell_angle_alpha    116.598
_cell_angle_beta     89.4518
_cell_angle_gamma    93.8181

_symmetry_Int_Tables_number  1
_chemical_formula_structural  LiFePH2O5
_chemical_formula_sum  Li2Fe2P2H4O0
_cell_volume  213.70596084166476
_cell_formula_units_Z  2
loop_
  _symmetry_equiv_pos_site_id
 _symmetry_equiv_pos_as_xyz
 1  'x, y, z'
loop_
 _atom_site_type_symbol
 _atom_site_label
 _atom_site_symmetry_multiplicity
 _atom_site_fract_x
 _atom_site_fract_y
 _atom_site_fract_z
 _atom_site_fract_occupancy
 Fe  Fe1  1  0.51257  0.51117  0.01306  1
 Fe  Fe2  1  0.01182  -0.01388  0.97537  1
 H  H1  1  0.25352  0.63089  0.34016  1
 H  H2  1  0.65789  -0.02172  0.73249  1
 H  H3  1  0.49350  0.80548  0.80800  1
 H  H4  1  0.00774  0.55737  0.21348  1
 Li  Li1  1  0.06282  0.07870  0.37060  1
 Li  Li2  1  0.58134  0.39971  0.60459  1
 O  O1  1  0.20203  0.20259  0.87287  1
 O  O2  1  0.21084  0.64366  0.88094  1
 O  O3  1  0.27008  0.15331  0.20204  1
 O  O4  1  0.76049  0.33240  0.77832  1
 O  O5  1  0.71034  0.26330  0.38873  1
 O  O6  1  0.19716  0.24133  0.59688  1
 O  O7  1  0.66845  0.81744  0.75098  1
 O  O8  1  0.17251  0.68857  0.26257  1
 O  O9  1  0.72344  0.32613  0.12156  1
 O  O10  1  0.70190  0.87515  0.10224  1
 P  P1  1  0.58979  0.16029  0.21193  1
 P  P2  1  0.08298  0.34812  0.77319  1
