CIF file written using JARVIS-Tools package.
data_H10C7O5
_symmetry_space_group_name_H-M  'P2_1'
_cell_length_a       5.08803
_cell_length_b       7.6929
_cell_length_c       9.60021
_cell_angle_alpha    90
_cell_angle_beta     93.6859
_cell_angle_gamma    90

_symmetry_Int_Tables_number  4
_chemical_formula_structural  H10C7O5
_chemical_formula_sum  H20C4O0
_cell_volume  374.99107313904403
_cell_formula_units_Z  2
loop_
  _symmetry_equiv_pos_site_id
 _symmetry_equiv_pos_as_xyz
 1  'x, y, z'
loop_
 _atom_site_type_symbol
 _atom_site_label
 _atom_site_symmetry_multiplicity
 _atom_site_fract_x
 _atom_site_fract_y
 _atom_site_fract_z
 _atom_site_fract_occupancy
 C  C1  1  0.82573  0.04612  0.81322  1
 C  C2  1  0.32004  0.38022  0.15986  1
 C  C3  1  0.17427  0.54612  0.18678  1
 C  C4  1  0.50173  0.88615  0.96049  1
 C  C5  1  0.49827  0.38615  0.03951  1
 C  C6  1  0.67996  0.88022  0.84014  1
 C  C7  1  0.82953  0.60541  0.78671  1
 C  C8  1  0.80558  0.71227  0.47897  1
 C  C9  1  0.39883  0.09963  0.45866  1
 C  C10  1  0.58172  0.64224  0.69486  1
 C  C11  1  0.41828  0.14224  0.30514  1
 C  C12  1  0.17047  0.10541  0.21329  1
 C  C13  1  0.19442  0.21227  0.52103  1
 C  C14  1  0.60117  0.59963  0.54134  1
 H  H1  1  0.41962  0.56629  0.73594  1
 H  H2  1  0.62026  0.90800  0.05846  1
 H  H3  1  0.33621  0.96355  0.47004  1
 H  H4  1  0.58038  0.06629  0.26406  1
 H  H5  1  0.59142  0.11514  0.51462  1
 H  H6  1  0.88045  0.83350  0.30959  1
 H  H7  1  0.11955  0.33350  0.69041  1
 H  H8  1  0.68373  0.14477  0.77406  1
 H  H9  1  0.66379  0.46355  0.52996  1
 H  H10  1  0.92807  0.09475  0.90940  1
 H  H11  1  0.07193  0.59475  0.09060  1
 H  H12  1  0.03153  0.52103  0.26508  1
 H  H13  1  0.31627  0.64477  0.22594  1
 H  H14  1  0.60986  0.26498  0.03281  1
 H  H15  1  0.96847  0.02103  0.73492  1
 H  H16  1  0.37974  0.40800  0.94154  1
 H  H17  1  0.36063  -0.00715  0.94251  1
 H  H18  1  0.63937  0.49285  0.05749  1
 H  H19  1  0.40858  0.61514  0.48538  1
 H  H20  1  0.39014  0.76498  0.96719  1
 O  O1  1  0.26402  0.26276  0.65235  1
 O  O2  1  0.01569  0.75230  0.54086  1
 O  O3  1  -0.01569  0.25230  0.45914  1
 O  O4  1  0.96236  0.47217  0.79439  1
 O  O5  1  0.12019  0.24067  0.12834  1
 O  O6  1  0.87981  0.74067  0.87166  1
 O  O7  1  0.45895  0.32519  0.28694  1
 O  O8  1  0.73598  0.76276  0.34765  1
 O  O9  1  0.03764  0.97217  0.20561  1
 O  O10  1  0.54105  0.82519  0.71306  1
