CIF file written using JARVIS-Tools package.
data_Li4Fe3Ni3O12
_symmetry_space_group_name_H-M  'P-1'
_cell_length_a       5.75016
_cell_length_b       5.7943
_cell_length_c       6.3851
_cell_angle_alpha    103.707
_cell_angle_beta     102.868
_cell_angle_gamma    92.3158

_symmetry_Int_Tables_number  2
_chemical_formula_structural  Li4Fe3Ni3O12
_chemical_formula_sum  Li4Fe3Ni3O2
_cell_volume  200.51252912857527
_cell_formula_units_Z  1
loop_
  _symmetry_equiv_pos_site_id
 _symmetry_equiv_pos_as_xyz
 1  'x, y, z'
loop_
 _atom_site_type_symbol
 _atom_site_label
 _atom_site_symmetry_multiplicity
 _atom_site_fract_x
 _atom_site_fract_y
 _atom_site_fract_z
 _atom_site_fract_occupancy
 Fe  Fe1  1  0.16200  0.66389  0.65696  1
 Fe  Fe2  1  0.50000  0.00000  0.00000  1
 Fe  Fe3  1  0.83800  0.33611  0.34304  1
 Li  Li1  1  0.80939  0.85061  0.34787  1
 Li  Li2  1  0.19061  0.14939  0.65213  1
 Li  Li3  1  0.50000  0.50000  0.00000  1
 Li  Li4  1  0.00000  0.50000  0.00000  1
 Ni  Ni1  1  0.66341  0.66913  0.66675  1
 Ni  Ni2  1  0.00000  0.00000  0.00000  1
 Ni  Ni3  1  0.33659  0.33087  0.33325  1
 O  O1  1  0.74688  0.24190  0.02645  1
 O  O2  1  0.58660  0.10229  0.31128  1
 O  O3  1  0.73846  0.77456  0.99097  1
 O  O4  1  0.06687  0.11368  0.32211  1
 O  O5  1  0.25312  0.75810  0.97355  1
 O  O6  1  0.60252  0.55607  0.34900  1
 O  O7  1  0.41340  0.89771  0.68872  1
 O  O8  1  0.93313  0.88632  0.67789  1
 O  O9  1  0.26154  0.22544  0.00903  1
 O  O10  1  0.39748  0.44393  0.65100  1
 O  O11  1  0.91975  0.43353  0.65749  1
 O  O12  1  0.08025  0.56647  0.34251  1
