CIF file written using JARVIS-Tools package.
data_NaVF4
_symmetry_space_group_name_H-M  'P2_1/c'
_cell_length_a       5.32601
_cell_length_b       7.50188
_cell_length_c       7.863
_cell_angle_alpha    79.3861
_cell_angle_beta     90
_cell_angle_gamma    90

_symmetry_Int_Tables_number  14
_chemical_formula_structural  NaVF4
_chemical_formula_sum  Na4V4F6
_cell_volume  308.7914839123228
_cell_formula_units_Z  4
loop_
  _symmetry_equiv_pos_site_id
 _symmetry_equiv_pos_as_xyz
 1  'x, y, z'
loop_
 _atom_site_type_symbol
 _atom_site_label
 _atom_site_symmetry_multiplicity
 _atom_site_fract_x
 _atom_site_fract_y
 _atom_site_fract_z
 _atom_site_fract_occupancy
 F  F1  1  0.45527  0.31282  0.62339  1
 F  F2  1  0.86776  0.94774  0.16994  1
 F  F3  1  0.36776  0.55226  0.83006  1
 F  F4  1  0.13224  0.05226  0.83006  1
 F  F5  1  0.97586  0.38148  0.69269  1
 F  F6  1  0.43596  0.79733  0.04172  1
 F  F7  1  0.93596  0.70267  0.95828  1
 F  F8  1  0.63224  0.44774  0.16994  1
 F  F9  1  0.06404  0.29733  0.04172  1
 F  F10  1  0.54473  0.68718  0.37661  1
 F  F11  1  0.04473  0.81282  0.62339  1
 F  F12  1  0.47586  0.11852  0.30731  1
 F  F13  1  0.95527  0.18718  0.37661  1
 F  F14  1  0.02414  0.61852  0.30731  1
 F  F15  1  0.52414  0.88148  0.69269  1
 F  F16  1  0.56404  0.20267  0.95828  1
 Na  Na1  1  0.28218  0.38457  0.35996  1
 Na  Na2  1  0.78218  0.11543  0.64004  1
 Na  Na3  1  0.71782  0.61543  0.64004  1
 Na  Na4  1  0.21782  0.88457  0.35996  1
 V  V1  1  0.76014  0.19915  0.17055  1
 V  V2  1  0.26014  0.30085  0.82945  1
 V  V3  1  0.23986  0.80085  0.82945  1
 V  V4  1  0.73986  0.69915  0.17055  1
