CIF file written using JARVIS-Tools package.
data_LiFePO4
_symmetry_space_group_name_H-M  'Fdd2'
_cell_length_a       5.41659
_cell_length_b       6.24493
_cell_length_c       5.41709
_cell_angle_alpha    76.3372
_cell_angle_beta     62.9071
_cell_angle_gamma    103.659

_symmetry_Int_Tables_number  43
_chemical_formula_structural  LiFePO4
_chemical_formula_sum  Li2Fe2P2O8
_cell_volume  145.46687587828777
_cell_formula_units_Z  2
loop_
  _symmetry_equiv_pos_site_id
 _symmetry_equiv_pos_as_xyz
 1  'x, y, z'
loop_
 _atom_site_type_symbol
 _atom_site_label
 _atom_site_symmetry_multiplicity
 _atom_site_fract_x
 _atom_site_fract_y
 _atom_site_fract_z
 _atom_site_fract_occupancy
 Fe  Fe1  1  0.80825  0.25000  0.80820  1
 Fe  Fe2  1  0.55825  0.75001  0.55820  1
 Li  Li1  1  0.43710  0.24998  0.43697  1
 Li  Li2  1  0.18710  0.75002  0.18693  1
 O  O1  1  0.79773  0.09098  0.24591  1
 O  O2  1  0.32255  0.10367  0.13398  1
 O  O3  1  0.73777  0.60372  0.21889  1
 O  O4  1  0.83673  0.59090  0.70693  1
 O  O5  1  0.13405  0.39629  0.32259  1
 O  O6  1  0.24582  0.40909  0.79782  1
 O  O7  1  0.70679  0.90904  0.83688  1
 O  O8  1  0.21889  0.89631  0.73767  1
 P  P1  1  0.12949  0.25001  0.12951  1
 P  P2  1  0.87949  0.74999  0.87953  1
