CIF file written using JARVIS-Tools package.
data_H4C3O
_symmetry_space_group_name_H-M  'P-1'
_cell_length_a       6.65328
_cell_length_b       8.08003
_cell_length_c       8.38164
_cell_angle_alpha    112.125
_cell_angle_beta     104.325
_cell_angle_gamma    93.3483

_symmetry_Int_Tables_number  2
_chemical_formula_structural  H4C3O
_chemical_formula_sum  H24C8O6
_cell_volume  398.62075741996114
_cell_formula_units_Z  6
loop_
  _symmetry_equiv_pos_site_id
 _symmetry_equiv_pos_as_xyz
 1  'x, y, z'
loop_
 _atom_site_type_symbol
 _atom_site_label
 _atom_site_symmetry_multiplicity
 _atom_site_fract_x
 _atom_site_fract_y
 _atom_site_fract_z
 _atom_site_fract_occupancy
 C  C1  1  0.13562  0.74315  0.49077  1
 C  C2  1  0.29704  0.66759  0.94986  1
 C  C3  1  0.70296  0.33241  0.05014  1
 C  C4  1  0.32639  0.79277  0.29198  1
 C  C5  1  0.67361  0.20723  0.70802  1
 C  C6  1  0.15484  0.85648  0.38302  1
 C  C7  1  0.84516  0.14352  0.61698  1
 C  C8  1  0.71104  0.38935  0.53829  1
 C  C9  1  0.28896  0.61065  0.46171  1
 C  C10  1  0.33644  0.60030  0.28804  1
 C  C11  1  0.66356  0.39970  0.71196  1
 C  C12  1  0.24717  0.80733  0.10926  1
 C  C13  1  0.75283  0.19267  0.89074  1
 C  C14  1  0.95831  0.81444  0.22558  1
 C  C15  1  0.04169  0.18556  0.77442  1
 C  C16  1  0.86438  0.25685  0.50923  1
 C  C17  1  0.69286  0.00016  0.87321  1
 C  C18  1  0.30714  -0.00016  0.12679  1
 H  H1  1  0.51049  0.43865  0.72099  1
 H  H2  1  0.17684  0.00143  0.47074  1
 H  H3  1  0.82316  0.99857  0.52926  1
 H  H4  1  0.43123  0.67159  0.57853  1
 H  H5  1  0.77589  0.51868  0.54097  1
 H  H6  1  0.76486  0.98741  -0.00028  1
 H  H7  1  0.47905  0.03086  0.15884  1
 H  H8  1  0.52095  0.96914  0.84116  1
 H  H9  1  0.25474  0.09906  0.23342  1
 H  H10  1  0.74526  0.90094  0.76658  1
 H  H11  1  0.25431  0.52916  0.93683  1
 H  H12  1  0.74569  0.47084  0.06317  1
 H  H13  1  0.22411  0.48132  0.45903  1
 H  H14  1  0.53306  0.30672  0.03081  1
 H  H15  1  0.46694  0.69328  0.96919  1
 H  H16  1  0.78860  0.32036  0.17431  1
 H  H17  1  0.23514  0.01259  0.00028  1
 H  H18  1  0.51943  0.12117  0.63302  1
 H  H19  1  0.48057  0.87883  0.36698  1
 H  H20  1  0.78556  0.50091  0.82828  1
 H  H21  1  0.21444  0.49909  0.17172  1
 H  H22  1  0.56877  0.32841  0.42147  1
 H  H23  1  0.48951  0.56135  0.27901  1
 H  H24  1  0.21140  0.67964  0.82569  1
 O  O1  1  0.01552  0.75935  0.58327  1
 O  O2  1  0.22392  0.18681  0.77024  1
 O  O3  1  0.98880  0.22637  0.92870  1
 O  O4  1  0.01120  0.77363  0.07130  1
 O  O5  1  0.98448  0.24065  0.41673  1
 O  O6  1  0.77608  0.81319  0.22976  1
