CIF file written using JARVIS-Tools package.
data_H2C2O
_symmetry_space_group_name_H-M  'P2_12_12_1'
_cell_length_a       5.22042
_cell_length_b       6.69432
_cell_length_c       10.5497
_cell_angle_alpha    90
_cell_angle_beta     90
_cell_angle_gamma    90

_symmetry_Int_Tables_number  19
_chemical_formula_structural  H2C2O
_chemical_formula_sum  H6C6O8
_cell_volume  368.68209588140684
_cell_formula_units_Z  8
loop_
  _symmetry_equiv_pos_site_id
 _symmetry_equiv_pos_as_xyz
 1  'x, y, z'
loop_
 _atom_site_type_symbol
 _atom_site_label
 _atom_site_symmetry_multiplicity
 _atom_site_fract_x
 _atom_site_fract_y
 _atom_site_fract_z
 _atom_site_fract_occupancy
 C  C1  1  0.08175  0.55252  0.31459  1
 C  C2  1  0.59310  0.06368  0.05481  1
 C  C3  1  0.16553  0.33146  0.81672  1
 C  C4  1  0.33447  0.66854  0.31672  1
 C  C5  1  0.83447  0.83146  0.68328  1
 C  C6  1  0.09310  0.43632  0.94519  1
 C  C7  1  0.40690  0.56368  0.44519  1
 C  C8  1  0.90690  0.93632  0.55481  1
 C  C9  1  0.66553  0.16854  0.18328  1
 C  C10  1  0.34298  0.55578  0.94002  1
 C  C11  1  0.65702  0.05578  0.55998  1
 C  C12  1  0.84298  0.94422  0.05998  1
 C  C13  1  0.41825  0.44748  0.81459  1
 C  C14  1  0.58175  0.94748  0.68541  1
 C  C15  1  0.91825  0.05252  0.18541  1
 C  C16  1  0.15702  0.44422  0.44002  1
 H  H1  1  0.46786  0.52623  0.02153  1
 H  H2  1  0.03214  0.47377  0.52153  1
 H  H3  1  0.08871  0.14765  0.17914  1
 H  H4  1  0.41129  0.85235  0.67914  1
 H  H5  1  0.91129  0.64765  0.32086  1
 H  H6  1  0.81159  0.78263  0.06800  1
 H  H7  1  0.56405  0.04112  0.76991  1
 H  H8  1  0.06405  0.45888  0.23009  1
 H  H9  1  0.43595  0.54112  0.73009  1
 H  H10  1  0.58871  0.35235  0.82086  1
 H  H11  1  0.68841  0.21737  0.56800  1
 H  H12  1  0.18841  0.28263  0.43200  1
 H  H13  1  0.31159  0.71737  0.93200  1
 H  H14  1  0.96786  0.97377  0.97847  1
 H  H15  1  0.53214  0.02623  0.47847  1
 H  H16  1  0.93595  0.95888  0.26991  1
 O  O1  1  0.58550  0.57690  0.51849  1
 O  O2  1  0.08550  0.92310  0.48151  1
 O  O3  1  0.05682  0.21378  0.74787  1
 O  O4  1  0.44318  0.78622  0.24787  1
 O  O5  1  0.94318  0.71378  0.75213  1
 O  O6  1  0.55682  0.28622  0.25213  1
 O  O7  1  0.91450  0.42310  0.01849  1
 O  O8  1  0.41450  0.07690  0.98151  1
