CIF file written using JARVIS-Tools package.
data_BaBeTe
_symmetry_space_group_name_H-M  'Amm2'
_cell_length_a       6.75493
_cell_length_b       4.15649
_cell_length_c       4.48255
_cell_angle_alpha    90
_cell_angle_beta     90
_cell_angle_gamma    107.906

_symmetry_Int_Tables_number  38
_chemical_formula_structural  BaBeTe
_chemical_formula_sum  BaBeTe
_cell_volume  119.75957540099864
_cell_formula_units_Z  1
loop_
  _symmetry_equiv_pos_site_id
 _symmetry_equiv_pos_as_xyz
 1  'x, y, z'
loop_
 _atom_site_type_symbol
 _atom_site_label
 _atom_site_symmetry_multiplicity
 _atom_site_fract_x
 _atom_site_fract_y
 _atom_site_fract_z
 _atom_site_fract_occupancy
 Ba  Ba1  1  0.44977  0.07674  0.00000  1
 Be  Be1  1  0.07358  0.38870  0.00000  1
 Te  Te1  1  -0.11355  -0.20481  0.00000  1
