CIF file written using JARVIS-Tools package.
data_Co6O5F7
_symmetry_space_group_name_H-M  'P1'
_cell_length_a       4.4941
_cell_length_b       5.37429
_cell_length_c       7.4618
_cell_angle_alpha    86.331
_cell_angle_beta     88.0204
_cell_angle_gamma    87.2138

_symmetry_Int_Tables_number  1
_chemical_formula_structural  Co6O5F7
_chemical_formula_sum  Co6O5F7
_cell_volume  179.55049902508037
_cell_formula_units_Z  1
loop_
  _symmetry_equiv_pos_site_id
 _symmetry_equiv_pos_as_xyz
 1  'x, y, z'
loop_
 _atom_site_type_symbol
 _atom_site_label
 _atom_site_symmetry_multiplicity
 _atom_site_fract_x
 _atom_site_fract_y
 _atom_site_fract_z
 _atom_site_fract_occupancy
 Co  Co1  1  0.50933  0.48704  0.00099  1
 Co  Co2  1  0.48702  0.17473  0.32927  1
 Co  Co3  1  0.52672  0.85119  0.67537  1
 Co  Co4  1  0.98948  0.32295  0.66865  1
 Co  Co5  1  0.02706  0.65071  0.32761  1
 Co  Co6  1  0.96232  0.01177  -0.00397  1
 F  F1  1  0.19493  0.97627  0.22875  1
 F  F2  1  0.29102  0.79744  0.91261  1
 F  F3  1  0.70210  0.86534  0.42039  1
 F  F4  1  0.78928  0.69064  0.09898  1
 F  F5  1  0.78641  0.36020  0.42865  1
 F  F6  1  0.20276  0.63162  0.57443  1
 F  F7  1  0.21943  0.30123  0.90299  1
 O  O1  1  0.70279  0.53941  0.77254  1
 O  O2  1  0.30453  0.12966  0.56286  1
 O  O3  1  0.31031  0.45997  0.22899  1
 O  O4  1  0.80415  0.04419  0.76997  1
 O  O5  1  0.69035  0.20565  0.10094  1
