CIF file written using JARVIS-Tools package.
data_Ni6OF11
_symmetry_space_group_name_H-M  'Amm2'
_cell_length_a       10.3024
_cell_length_b       10.3024
_cell_length_c       3.05894
_cell_angle_alpha    90
_cell_angle_beta     90
_cell_angle_gamma    142.538

_symmetry_Int_Tables_number  38
_chemical_formula_structural  Ni6OF11
_chemical_formula_sum  Ni6OF
_cell_volume  197.47619812327073
_cell_formula_units_Z  1
loop_
  _symmetry_equiv_pos_site_id
 _symmetry_equiv_pos_as_xyz
 1  'x, y, z'
loop_
 _atom_site_type_symbol
 _atom_site_label
 _atom_site_symmetry_multiplicity
 _atom_site_fract_x
 _atom_site_fract_y
 _atom_site_fract_z
 _atom_site_fract_occupancy
 F  F1  1  0.73074  0.26926  0.50000  1
 F  F2  1  0.06679  0.93321  0.50000  1
 F  F3  1  0.36493  0.02933  0.00000  1
 F  F4  1  0.63618  0.97102  0.00000  1
 F  F5  1  0.30249  0.30187  0.00000  1
 F  F6  1  0.69813  0.69751  0.00000  1
 F  F7  1  0.59777  0.40223  0.50000  1
 F  F8  1  0.27077  0.72923  0.50000  1
 F  F9  1  0.93404  0.06596  0.50000  1
 F  F10  1  0.02898  0.36382  0.00000  1
 F  F11  1  0.97067  0.63507  0.00000  1
 Ni  Ni1  1  0.83231  0.16769  0.50000  1
 Ni  Ni2  1  0.66421  0.33579  0.00000  1
 Ni  Ni3  1  0.34137  0.65863  0.00000  1
 Ni  Ni4  1  0.16936  0.83064  0.50000  1
 Ni  Ni5  1  0.49316  0.50684  0.50000  1
 Ni  Ni6  1  0.00024  0.99976  0.00000  1
 O  O1  1  0.39811  0.60189  0.50000  1
