CIF file written using JARVIS-Tools package.
data_Li2MnF4
_symmetry_space_group_name_H-M  'I4_1md'
_cell_length_a       5.68513
_cell_length_b       5.68512
_cell_length_c       5.68512
_cell_angle_alpha    110.456
_cell_angle_beta     110.473
_cell_angle_gamma    107.503

_symmetry_Int_Tables_number  109
_chemical_formula_structural  Li2MnF4
_chemical_formula_sum  Li4Mn2F8
_cell_volume  141.32375979317587
_cell_formula_units_Z  2
loop_
  _symmetry_equiv_pos_site_id
 _symmetry_equiv_pos_as_xyz
 1  'x, y, z'
loop_
 _atom_site_type_symbol
 _atom_site_label
 _atom_site_symmetry_multiplicity
 _atom_site_fract_x
 _atom_site_fract_y
 _atom_site_fract_z
 _atom_site_fract_occupancy
 F  F1  1  0.46347  0.66181  0.19834  1
 F  F2  1  0.46347  0.26512  0.80166  1
 F  F3  1  0.03632  0.34008  0.30376  1
 F  F4  1  0.03632  0.73256  0.69624  1
 F  F5  1  0.51511  0.21344  0.30166  1
 F  F6  1  0.59011  0.78634  0.80377  1
 F  F7  1  0.98258  0.78634  0.19623  1
 F  F8  1  0.91178  0.21344  0.69834  1
 Li  Li1  1  0.74871  0.00187  0.25316  1
 Li  Li2  1  0.74871  0.49555  0.74684  1
 Li  Li3  1  0.74556  0.49871  0.24685  1
 Li  Li4  1  0.25186  0.49871  0.75315  1
 Mn  Mn1  1  0.36998  0.86998  0.50000  1
 Mn  Mn2  1  0.11987  0.11987  0.00000  1
