CIF file written using JARVIS-Tools package.
data_V6O5F19
_symmetry_space_group_name_H-M  'P1'
_cell_length_a       5.54244
_cell_length_b       5.54283
_cell_length_c       12.4046
_cell_angle_alpha    102.962
_cell_angle_beta     89.3976
_cell_angle_gamma    92.386

_symmetry_Int_Tables_number  1
_chemical_formula_structural  V6O5F19
_chemical_formula_sum  V6O5F9
_cell_volume  371.0457618219597
_cell_formula_units_Z  1
loop_
  _symmetry_equiv_pos_site_id
 _symmetry_equiv_pos_as_xyz
 1  'x, y, z'
loop_
 _atom_site_type_symbol
 _atom_site_label
 _atom_site_symmetry_multiplicity
 _atom_site_fract_x
 _atom_site_fract_y
 _atom_site_fract_z
 _atom_site_fract_occupancy
 F  F1  1  0.51258  0.08720  0.18853  1
 F  F2  1  0.76511  0.73709  0.00332  1
 F  F3  1  0.23765  0.92965  0.33459  1
 F  F4  1  0.00327  0.92845  0.85857  1
 F  F5  1  0.00932  0.08124  0.14198  1
 F  F6  1  0.00832  0.60067  0.19197  1
 F  F7  1  0.50921  0.90947  0.80705  1
 F  F8  1  0.00598  0.73256  0.47305  1
 F  F9  1  0.50355  0.57135  0.14218  1
 F  F10  1  0.51072  0.76769  0.52677  1
 F  F11  1  0.74302  0.43775  0.33086  1
 F  F12  1  0.25931  0.41161  0.33193  1
 F  F13  1  0.51083  0.44098  0.85884  1
 F  F14  1  0.01799  0.25907  0.52630  1
 F  F15  1  0.26535  0.23372  -0.00273  1
 F  F16  1  0.01772  0.39966  0.80784  1
 F  F17  1  0.51494  0.24022  0.47686  1
 F  F18  1  0.26320  0.58116  0.66693  1
 F  F19  1  0.77402  0.58515  0.66719  1
 O  O1  1  0.75024  0.24503  -0.00053  1
 O  O2  1  0.74730  0.92844  0.33373  1
 O  O3  1  0.71589  0.10885  0.66707  1
 O  O4  1  0.24976  0.74499  0.00097  1
 O  O5  1  0.21659  0.06273  0.66662  1
 V  V1  1  0.48484  0.18798  0.33264  1
 V  V2  1  0.93484  0.31571  0.66711  1
 V  V3  1  0.54562  0.44070  0.00011  1
 V  V4  1  0.95003  0.72299  0.33287  1
 V  V5  1  0.42714  0.86724  0.66684  1
 V  V6  1  0.04569  0.94065  0.00053  1
