CIF file written using JARVIS-Tools package.
data_H14C6O5
_symmetry_space_group_name_H-M  'P2_1'
_cell_length_a       4.77721
_cell_length_b       4.67996
_cell_length_c       16.8033
_cell_angle_alpha    90
_cell_angle_beta     93.7102
_cell_angle_gamma    90

_symmetry_Int_Tables_number  4
_chemical_formula_structural  H14C6O5
_chemical_formula_sum  H28C2O0
_cell_volume  374.8856502117294
_cell_formula_units_Z  2
loop_
  _symmetry_equiv_pos_site_id
 _symmetry_equiv_pos_as_xyz
 1  'x, y, z'
loop_
 _atom_site_type_symbol
 _atom_site_label
 _atom_site_symmetry_multiplicity
 _atom_site_fract_x
 _atom_site_fract_y
 _atom_site_fract_z
 _atom_site_fract_occupancy
 C  C1  1  0.33992  0.15920  0.07260  1
 C  C2  1  0.58019  0.88709  0.63019  1
 C  C3  1  0.37898  0.26426  0.22064  1
 C  C4  1  0.62102  0.76426  0.77936  1
 C  C5  1  0.22345  0.33479  0.29519  1
 C  C6  1  0.77655  0.83479  0.70481  1
 C  C7  1  0.41981  0.38709  0.36981  1
 C  C8  1  0.25498  0.43659  0.44321  1
 C  C9  1  0.82073  0.71104  0.85311  1
 C  C10  1  0.66008  0.65920  0.92740  1
 C  C11  1  0.17927  0.21104  0.14689  1
 C  C12  1  0.74502  0.93659  0.55679  1
 H  H1  1  0.44199  0.70072  0.62067  1
 H  H2  1  0.55801  0.20072  0.37933  1
 H  H3  1  0.91414  0.65284  0.69210  1
 H  H4  1  0.51781  0.44487  0.20758  1
 H  H5  1  0.48219  0.94487  0.79242  1
 H  H6  1  0.39725  0.46024  0.49660  1
 H  H7  1  0.08586  0.15284  0.30790  1
 H  H8  1  0.60275  0.96024  0.50340  1
 H  H9  1  0.95794  0.89767  0.86373  1
 H  H10  1  0.88326  0.75328  0.54724  1
 H  H11  1  0.95367  0.80365  0.00645  1
 H  H12  1  0.04633  0.30365  0.99355  1
 H  H13  1  0.28911  0.50850  0.79391  1
 H  H14  1  0.48696  0.26622  0.68043  1
 H  H15  1  0.11674  0.25328  0.45276  1
 H  H16  1  0.91268  0.33197  0.80292  1
 H  H17  1  0.08732  0.83197  0.19708  1
 H  H18  1  0.10911  0.08867  0.68961  1
 H  H19  1  0.89089  0.58867  0.31039  1
 H  H20  1  0.51304  0.76622  0.31957  1
 H  H21  1  0.48421  0.33959  0.06418  1
 H  H22  1  0.53435  0.46276  0.92087  1
 H  H23  1  0.46565  0.96276  0.07913  1
 H  H24  1  0.71089  0.00850  0.20609  1
 H  H25  1  0.04206  0.39767  0.13627  1
 H  H26  1  0.87562  0.12916  0.56419  1
 H  H27  1  0.12438  0.62916  0.43581  1
 H  H28  1  0.51579  0.83959  0.93582  1
 O  O1  1  -0.00469  0.97165  0.15936  1
 O  O2  1  0.39588  0.12800  0.64211  1
 O  O3  1  0.60412  0.62800  0.35789  1
 O  O4  1  0.94154  0.08492  0.72287  1
 O  O5  1  0.15288  0.12159  0.00266  1
 O  O6  1  0.45798  0.51263  0.76103  1
 O  O7  1  0.54202  0.01263  0.23897  1
 O  O8  1  0.00469  0.47165  0.84064  1
 O  O9  1  0.05846  0.58492  0.27713  1
 O  O10  1  0.84712  0.62159  -0.00266  1
