CIF file written using JARVIS-Tools package.
data_FeI3O9
_symmetry_space_group_name_H-M  'P6_3'
_cell_length_a       8.88169
_cell_length_b       8.88169
_cell_length_c       5.22564
_cell_angle_alpha    90
_cell_angle_beta     90
_cell_angle_gamma    120

_symmetry_Int_Tables_number  173
_chemical_formula_structural  FeI3O9
_chemical_formula_sum  Fe2I6O8
_cell_volume  356.9940520216266
_cell_formula_units_Z  2
loop_
  _symmetry_equiv_pos_site_id
 _symmetry_equiv_pos_as_xyz
 1  'x, y, z'
loop_
 _atom_site_type_symbol
 _atom_site_label
 _atom_site_symmetry_multiplicity
 _atom_site_fract_x
 _atom_site_fract_y
 _atom_site_fract_z
 _atom_site_fract_occupancy
 Fe  Fe1  1  0.33333  0.66667  0.63341  1
 Fe  Fe2  1  0.66667  0.33333  0.13341  1
 I  I1  1  0.33669  0.31100  0.50679  1
 I  I2  1  0.97431  0.66331  0.50679  1
 I  I3  1  0.02569  0.33669  0.00679  1
 I  I4  1  0.31100  0.97431  0.00679  1
 I  I5  1  0.66331  0.68900  0.00679  1
 I  I6  1  0.68900  0.02569  0.50679  1
 O  O1  1  0.79973  0.27908  0.90476  1
 O  O2  1  0.52065  0.79973  0.40476  1
 O  O3  1  0.27908  0.47935  0.40476  1
 O  O4  1  0.72092  0.52065  0.90476  1
 O  O5  1  0.12658  0.56036  0.83727  1
 O  O6  1  0.20027  0.72092  0.40476  1
 O  O7  1  0.43378  0.87342  0.83727  1
 O  O8  1  0.47935  0.20027  0.90476  1
 O  O9  1  0.94915  0.78323  0.24238  1
 O  O10  1  0.78323  0.83408  0.74238  1
 O  O11  1  0.05085  0.21677  0.74238  1
 O  O12  1  0.56036  0.43378  0.33727  1
 O  O13  1  0.21677  0.16592  0.24238  1
 O  O14  1  0.87342  0.43964  0.33727  1
 O  O15  1  0.56622  0.12658  0.33727  1
 O  O16  1  0.43964  0.56622  0.83727  1
 O  O17  1  0.83408  0.05085  0.24238  1
 O  O18  1  0.16592  0.94915  0.74238  1
