CIF file written using JARVIS-Tools package.
data_CrBPbO4
_symmetry_space_group_name_H-M  'Pnma'
_cell_length_a       5.97986
_cell_length_b       6.80337
_cell_length_c       8.32875
_cell_angle_alpha    90
_cell_angle_beta     90
_cell_angle_gamma    90

_symmetry_Int_Tables_number  62
_chemical_formula_structural  CrBPbO4
_chemical_formula_sum  Cr4B4Pb4O6
_cell_volume  338.8403792569526
_cell_formula_units_Z  4
loop_
  _symmetry_equiv_pos_site_id
 _symmetry_equiv_pos_as_xyz
 1  'x, y, z'
loop_
 _atom_site_type_symbol
 _atom_site_label
 _atom_site_symmetry_multiplicity
 _atom_site_fract_x
 _atom_site_fract_y
 _atom_site_fract_z
 _atom_site_fract_occupancy
 B  B1  1  0.25000  0.77472  0.73809  1
 B  B2  1  0.25000  0.27472  0.76191  1
 B  B3  1  0.75000  0.72528  0.23809  1
 B  B4  1  0.75000  0.22528  0.26191  1
 Cr  Cr1  1  0.00000  0.50000  0.50000  1
 Cr  Cr2  1  0.50000  0.50000  0.50000  1
 Cr  Cr3  1  0.50000  0.00000  0.00000  1
 Cr  Cr4  1  0.00000  0.00000  0.00000  1
 O  O1  1  0.54823  0.67459  0.30850  1
 O  O2  1  0.75000  0.32532  0.40879  1
 O  O3  1  0.25000  0.17468  0.90879  1
 O  O4  1  0.04823  0.32541  0.69150  1
 O  O5  1  0.45177  0.82541  0.80850  1
 O  O6  1  0.45177  0.32541  0.69150  1
 O  O7  1  0.25000  0.67468  0.59121  1
 O  O8  1  0.95177  0.17459  0.19150  1
 O  O9  1  0.25000  0.88936  0.11571  1
 O  O10  1  0.04823  0.82541  0.80850  1
 O  O11  1  0.25000  0.38936  0.38429  1
 O  O12  1  0.75000  0.61064  0.61571  1
 O  O13  1  0.75000  0.82532  0.09121  1
 O  O14  1  0.54823  0.17459  0.19150  1
 O  O15  1  0.75000  0.11064  0.88429  1
 O  O16  1  0.95177  0.67459  0.30850  1
 Pb  Pb1  1  0.25000  0.54148  0.13711  1
 Pb  Pb2  1  0.75000  0.45852  0.86289  1
 Pb  Pb3  1  0.25000  0.04148  0.36289  1
 Pb  Pb4  1  0.75000  0.95852  0.63711  1
