CIF file written using JARVIS-Tools package.
data_BaHBr
_symmetry_space_group_name_H-M  'P4mm'
_cell_length_a       7.83145
_cell_length_b       7.83145
_cell_length_c       10.7181
_cell_angle_alpha    90
_cell_angle_beta     90
_cell_angle_gamma    90

_symmetry_Int_Tables_number  99
_chemical_formula_structural  BaHBr
_chemical_formula_sum  BaHBr
_cell_volume  657.3566853986396
_cell_formula_units_Z  1
loop_
  _symmetry_equiv_pos_site_id
 _symmetry_equiv_pos_as_xyz
 1  'x, y, z'
loop_
 _atom_site_type_symbol
 _atom_site_label
 _atom_site_symmetry_multiplicity
 _atom_site_fract_x
 _atom_site_fract_y
 _atom_site_fract_z
 _atom_site_fract_occupancy
 Ba  Ba1  1  0.00000  0.00000  0.36979  1
 Br  Br1  1  0.00000  0.00000  0.64681  1
 H  H1  1  0.00000  0.00000  0.14908  1
