CIF file written using JARVIS-Tools package.
data_Mn4TeO8
_symmetry_space_group_name_H-M  'C2/m'
_cell_length_a       5.95527
_cell_length_b       6.19698
_cell_length_c       5.84804
_cell_angle_alpha    116.68
_cell_angle_beta     120.61
_cell_angle_gamma    61.2978

_symmetry_Int_Tables_number  12
_chemical_formula_structural  Mn4TeO8
_chemical_formula_sum  Mn4TeO8
_cell_volume  156.83434308214996
_cell_formula_units_Z  1
loop_
  _symmetry_equiv_pos_site_id
 _symmetry_equiv_pos_as_xyz
 1  'x, y, z'
loop_
 _atom_site_type_symbol
 _atom_site_label
 _atom_site_symmetry_multiplicity
 _atom_site_fract_x
 _atom_site_fract_y
 _atom_site_fract_z
 _atom_site_fract_occupancy
 Mn  Mn1  1  0.50000  0.50001  0.50000  1
 Mn  Mn2  1  0.50000  0.50001  0.00000  1
 Mn  Mn3  1  -0.00000  -0.00000  -0.00000  1
 Mn  Mn4  1  -0.00000  0.50001  0.00000  1
 O  O1  1  0.24566  0.30572  0.79713  1
 O  O2  1  0.75435  0.69426  0.20287  1
 O  O3  1  0.73863  0.30772  0.78511  1
 O  O4  1  0.26136  0.69228  0.21489  1
 O  O5  1  0.26665  0.73998  0.77341  1
 O  O6  1  0.76688  0.74018  0.77356  1
 O  O7  1  0.73335  0.26002  0.22659  1
 O  O8  1  0.23312  0.25982  0.22644  1
 Te  Te1  1  0.50000  0.00000  0.00000  1
