CIF file written using JARVIS-Tools package.
data_V2CoP2H8O14
_symmetry_space_group_name_H-M  'I4/m'
_cell_length_a       6.27919
_cell_length_b       6.27911
_cell_length_c       7.94585
_cell_angle_alpha    66.7257
_cell_angle_beta     113.275
_cell_angle_gamma    90.0001

_symmetry_Int_Tables_number  87
_chemical_formula_structural  V2CoP2H8O14
_chemical_formula_sum  V2CoP2H8O4
_cell_volume  259.80739883797264
_cell_formula_units_Z  1
loop_
  _symmetry_equiv_pos_site_id
 _symmetry_equiv_pos_as_xyz
 1  'x, y, z'
loop_
 _atom_site_type_symbol
 _atom_site_label
 _atom_site_symmetry_multiplicity
 _atom_site_fract_x
 _atom_site_fract_y
 _atom_site_fract_z
 _atom_site_fract_occupancy
 Co  Co1  1  0.00000  -0.00000  0.00000  1
 H  H1  1  0.87683  0.58623  0.12222  1
 H  H2  1  0.75463  0.70842  0.87782  1
 H  H3  1  0.70844  0.12320  0.12220  1
 H  H4  1  0.41376  0.75461  0.12220  1
 H  H5  1  0.24537  0.29158  0.12218  1
 H  H6  1  0.12318  0.41377  0.87779  1
 H  H7  1  0.29156  0.87680  0.87780  1
 H  H8  1  0.58624  0.24540  0.87781  1
 O  O1  1  0.26214  0.79999  -0.00000  1
 O  O2  1  0.73786  0.20000  0.00001  1
 O  O3  1  0.34304  0.37809  0.63894  1
 O  O4  1  0.19998  0.26216  -0.00001  1
 O  O5  1  0.15326  0.84675  0.30648  1
 O  O6  1  0.01703  0.65697  0.63891  1
 O  O7  1  0.84674  0.15325  0.69352  1
 O  O8  1  0.29591  0.98296  0.63892  1
 O  O9  1  0.65696  0.62191  0.36106  1
 O  O10  1  0.37809  0.29591  0.36107  1
 O  O11  1  0.70409  0.01704  0.36108  1
 O  O12  1  0.98297  0.34303  0.36109  1
 O  O13  1  0.80002  0.73784  0.00001  1
 O  O14  1  0.62191  0.70409  0.63893  1
 P  P1  1  0.75000  0.75000  0.49999  1
 P  P2  1  0.25000  0.25000  0.50000  1
 V  V1  1  0.72266  0.27734  0.44534  1
 V  V2  1  0.27733  0.72266  0.55465  1
