CIF file written using JARVIS-Tools package.
data_LiFePO4
_symmetry_space_group_name_H-M  'Pc'
_cell_length_a       4.86883
_cell_length_b       8.19936
_cell_length_c       8.74051
_cell_angle_alpha    89.9903
_cell_angle_beta     90.0076
_cell_angle_gamma    104.942

_symmetry_Int_Tables_number  7
_chemical_formula_structural  LiFePO4
_chemical_formula_sum  Li4Fe4P4O6
_cell_volume  337.13432890076194
_cell_formula_units_Z  4
loop_
  _symmetry_equiv_pos_site_id
 _symmetry_equiv_pos_as_xyz
 1  'x, y, z'
loop_
 _atom_site_type_symbol
 _atom_site_label
 _atom_site_symmetry_multiplicity
 _atom_site_fract_x
 _atom_site_fract_y
 _atom_site_fract_z
 _atom_site_fract_occupancy
 Fe  Fe1  1  0.59171  0.37951  0.48957  1
 Fe  Fe2  1  0.04726  0.59479  0.49741  1
 Fe  Fe3  1  0.04731  0.09478  0.00262  1
 Fe  Fe4  1  0.59187  0.87935  0.01036  1
 Li  Li1  1  0.94049  0.09081  0.63399  1
 Li  Li2  1  0.41755  0.48361  0.08649  1
 Li  Li3  1  0.94074  0.59072  0.86612  1
 Li  Li4  1  0.41725  0.98371  0.41358  1
 O  O1  1  0.21973  0.42289  0.40847  1
 O  O2  1  0.60276  0.40606  0.91383  1
 O  O3  1  0.13843  0.11253  0.43162  1
 O  O4  1  0.67974  0.11081  0.91773  1
 O  O5  1  0.67965  0.61112  0.58191  1
 O  O6  1  0.72055  0.76837  0.82960  1
 O  O7  1  0.60226  0.90624  0.58643  1
 O  O8  1  0.22015  0.92304  0.09160  1
 O  O9  1  0.23694  0.15429  0.79962  1
 O  O10  1  0.72047  0.26862  0.67036  1
 O  O11  1  0.23692  0.65409  0.70041  1
 O  O12  1  0.72736  0.72919  0.15279  1
 O  O13  1  0.13922  0.61276  0.06832  1
 O  O14  1  0.15121  0.25774  0.16764  1
 O  O15  1  0.72686  0.22926  0.34717  1
 O  O16  1  0.15172  0.75772  0.33237  1
 P  P1  1  0.55855  0.24217  0.82474  1
 P  P2  1  0.05116  0.24678  0.33617  1
 P  P3  1  0.55845  0.74219  0.67526  1
 P  P4  1  0.05170  0.74686  0.16383  1
