CIF file written using JARVIS-Tools package.
data_H11C12O2
_symmetry_space_group_name_H-M  'P-1'
_cell_length_a       7.86833
_cell_length_b       8.12028
_cell_length_c       8.42152
_cell_angle_alpha    117.358
_cell_angle_beta     105.88
_cell_angle_gamma    98.7777

_symmetry_Int_Tables_number  2
_chemical_formula_structural  H11C12O2
_chemical_formula_sum  H22C24O4
_cell_volume  434.57227582850965
_cell_formula_units_Z  2
loop_
  _symmetry_equiv_pos_site_id
 _symmetry_equiv_pos_as_xyz
 1  'x, y, z'
loop_
 _atom_site_type_symbol
 _atom_site_label
 _atom_site_symmetry_multiplicity
 _atom_site_fract_x
 _atom_site_fract_y
 _atom_site_fract_z
 _atom_site_fract_occupancy
 C  C1  1  0.67779  0.86950  0.87291  1
 C  C2  1  0.32221  0.13050  0.12709  1
 C  C3  1  0.58452  0.67850  0.68048  1
 C  C4  1  0.44435  0.52619  0.65085  1
 C  C5  1  0.63972  0.65092  0.52785  1
 C  C6  1  0.36028  0.34908  0.47215  1
 C  C7  1  0.55565  0.47381  0.34915  1
 C  C8  1  0.31688  0.65142  0.06857  1
 C  C9  1  0.41548  0.32150  0.31952  1
 C  C10  1  0.68312  0.34858  0.93143  1
 C  C11  1  0.06114  0.82250  0.33676  1
 C  C12  1  0.73377  0.21212  0.97740  1
 C  C13  1  0.11299  0.72317  0.85094  1
 C  C14  1  0.88701  0.27683  0.14906  1
 C  C15  1  0.00867  0.52424  0.73192  1
 C  C16  1  0.99133  0.47576  0.26808  1
 C  C17  1  0.05415  0.38725  0.77908  1
 C  C18  1  0.94585  0.61275  0.22092  1
 C  C19  1  0.93886  0.17750  0.66324  1
 C  C20  1  0.76313  0.10701  0.48855  1
 C  C21  1  0.23687  0.89299  0.51145  1
 C  C22  1  0.26623  0.78788  0.02260  1
 C  C23  1  0.78842  0.54493  0.05110  1
 C  C24  1  0.21158  0.45507  0.94890  1
 H  H1  1  0.28853  0.05326  0.59719  1
 H  H2  1  0.56245  0.29620  0.79921  1
 H  H3  1  0.40011  0.54626  0.76837  1
 H  H4  1  0.59989  0.45374  0.23163  1
 H  H5  1  0.24924  0.23149  0.44867  1
 H  H6  1  0.75076  0.76851  0.55133  1
 H  H7  1  0.16949  0.09336  0.07624  1
 H  H8  1  0.36554  0.13433  0.01481  1
 H  H9  1  0.63446  0.86567  0.98519  1
 H  H10  1  0.24717  0.34949  0.98573  1
 H  H11  1  0.43755  0.70380  0.20079  1
 H  H12  1  0.75283  0.65051  0.01427  1
 H  H13  1  0.07417  0.82527  0.80971  1
 H  H14  1  0.92583  0.17473  0.19029  1
 H  H15  1  0.88858  0.47704  0.60114  1
 H  H16  1  0.11142  0.52296  0.39886  1
 H  H17  1  0.78520  0.16100  0.39561  1
 H  H18  1  0.21480  0.83900  0.60439  1
 H  H19  1  0.65505  0.16041  0.53613  1
 H  H20  1  0.34495  0.83959  0.46387  1
 H  H21  1  0.71147  0.94674  0.40281  1
 H  H22  1  0.83051  0.90664  0.92376  1
 O  O1  1  0.37509  0.97818  0.15462  1
 O  O2  1  0.01720  0.93742  0.28686  1
 O  O3  1  0.62491  0.02182  0.84538  1
 O  O4  1  0.98280  0.06258  0.71314  1
