CIF file written using JARVIS-Tools package.
data_LiVSiO4
_symmetry_space_group_name_H-M  'P-1'
_cell_length_a       5.78769
_cell_length_b       6.41599
_cell_length_c       9.33921
_cell_angle_alpha    77.7306
_cell_angle_beta     88.7984
_cell_angle_gamma    80.8915

_symmetry_Int_Tables_number  2
_chemical_formula_structural  LiVSiO4
_chemical_formula_sum  Li4V4Si4O6
_cell_volume  334.5769706501981
_cell_formula_units_Z  4
loop_
  _symmetry_equiv_pos_site_id
 _symmetry_equiv_pos_as_xyz
 1  'x, y, z'
loop_
 _atom_site_type_symbol
 _atom_site_label
 _atom_site_symmetry_multiplicity
 _atom_site_fract_x
 _atom_site_fract_y
 _atom_site_fract_z
 _atom_site_fract_occupancy
 Li  Li1  1  0.59289  0.87774  0.75183  1
 Li  Li2  1  0.44056  0.66178  0.33117  1
 Li  Li3  1  0.55944  0.33822  0.66883  1
 Li  Li4  1  0.40711  0.12226  0.24817  1
 O  O1  1  0.54451  0.73362  0.95578  1
 O  O2  1  0.69564  0.10774  0.34991  1
 O  O3  1  0.89646  0.81755  0.67317  1
 O  O4  1  0.81387  0.94002  0.10982  1
 O  O5  1  0.11484  0.65261  0.99023  1
 O  O6  1  0.16048  0.69789  0.44412  1
 O  O7  1  0.30436  0.89226  0.65009  1
 O  O8  1  0.75260  0.53578  0.28342  1
 O  O9  1  0.24740  0.46422  0.71658  1
 O  O10  1  0.71074  0.13829  0.82421  1
 O  O11  1  0.83952  0.30211  0.55588  1
 O  O12  1  0.18613  0.05998  0.89018  1
 O  O13  1  0.28926  0.86171  0.17579  1
 O  O14  1  0.10354  0.18245  0.32683  1
 O  O15  1  0.88516  0.34739  0.00977  1
 O  O16  1  0.45549  0.26638  0.04422  1
 Si  Si1  1  0.15261  0.70929  0.61785  1
 Si  Si2  1  0.28510  0.83277  0.00734  1
 Si  Si3  1  0.71490  0.16723  0.99266  1
 Si  Si4  1  0.84739  0.29071  0.38215  1
 V  V1  1  0.01396  0.07236  0.70565  1
 V  V2  1  0.18680  0.36445  0.92342  1
 V  V3  1  0.81320  0.63555  0.07658  1
 V  V4  1  0.98604  0.92764  0.29435  1
