CIF file written using JARVIS-Tools package.
data_LiFeSiO4
_symmetry_space_group_name_H-M  'Pna2_1'
_cell_length_a       5.00686
_cell_length_b       6.27574
_cell_length_c       10.6413
_cell_angle_alpha    90
_cell_angle_beta     90
_cell_angle_gamma    90

_symmetry_Int_Tables_number  33
_chemical_formula_structural  LiFeSiO4
_chemical_formula_sum  Li4Fe4Si4O6
_cell_volume  334.36670365432303
_cell_formula_units_Z  4
loop_
  _symmetry_equiv_pos_site_id
 _symmetry_equiv_pos_as_xyz
 1  'x, y, z'
loop_
 _atom_site_type_symbol
 _atom_site_label
 _atom_site_symmetry_multiplicity
 _atom_site_fract_x
 _atom_site_fract_y
 _atom_site_fract_z
 _atom_site_fract_occupancy
 Fe  Fe1  1  0.15645  0.96095  0.41886  1
 Fe  Fe2  1  0.34355  0.96095  0.91886  1
 Fe  Fe3  1  0.65645  0.46095  0.08114  1
 Fe  Fe4  1  0.84355  0.46095  0.58114  1
 Li  Li1  1  0.15333  0.71104  0.16726  1
 Li  Li2  1  0.34667  0.71104  0.66726  1
 Li  Li3  1  0.65333  0.21104  0.33274  1
 Li  Li4  1  0.84667  0.21104  0.83274  1
 O  O1  1  0.23944  0.18453  0.81108  1
 O  O2  1  0.28517  0.42551  0.10499  1
 O  O3  1  0.26418  0.99222  0.58623  1
 O  O4  1  0.17558  0.73237  0.83580  1
 O  O5  1  0.21483  0.42551  0.60499  1
 O  O6  1  0.76056  0.68453  0.18892  1
 O  O7  1  0.32442  0.73237  0.33580  1
 O  O8  1  0.23582  0.99222  0.08623  1
 O  O9  1  0.67558  0.23237  0.66420  1
 O  O10  1  0.76418  0.49222  0.91377  1
 O  O11  1  0.71483  0.92551  0.89501  1
 O  O12  1  0.73582  0.49222  0.41377  1
 O  O13  1  0.26056  0.18453  0.31108  1
 O  O14  1  0.78517  0.92551  0.39501  1
 O  O15  1  0.73944  0.68453  0.68892  1
 O  O16  1  0.82442  0.23237  0.16420  1
 Si  Si1  1  0.15174  0.20779  0.16539  1
 Si  Si2  1  0.34826  0.20779  0.66539  1
 Si  Si3  1  0.65174  0.70779  0.33461  1
 Si  Si4  1  0.84826  0.70779  0.83461  1
