CIF file written using JARVIS-Tools package.
data_H8C9O3
_symmetry_space_group_name_H-M  'P-1'
_cell_length_a       4.56444
_cell_length_b       8.35937
_cell_length_c       9.4647
_cell_angle_alpha    87.1245
_cell_angle_beta     88.8273
_cell_angle_gamma    81.2439

_symmetry_Int_Tables_number  2
_chemical_formula_structural  H8C9O3
_chemical_formula_sum  H6C8O6
_cell_volume  356.4455458245015
_cell_formula_units_Z  2
loop_
  _symmetry_equiv_pos_site_id
 _symmetry_equiv_pos_as_xyz
 1  'x, y, z'
loop_
 _atom_site_type_symbol
 _atom_site_label
 _atom_site_symmetry_multiplicity
 _atom_site_fract_x
 _atom_site_fract_y
 _atom_site_fract_z
 _atom_site_fract_occupancy
 C  C1  1  0.63230  0.94473  0.25330  1
 C  C2  1  0.17153  0.69016  0.56176  1
 C  C3  1  0.36770  0.05527  0.74670  1
 C  C4  1  0.94864  0.67034  0.94900  1
 C  C5  1  0.05136  0.32966  0.05100  1
 C  C6  1  0.15264  0.61577  0.06657  1
 C  C7  1  0.20346  0.45207  0.11468  1
 C  C8  1  0.50160  0.67936  0.23691  1
 C  C9  1  0.40444  0.40262  0.22399  1
 C  C10  1  0.59556  0.59738  0.77601  1
 C  C11  1  0.55360  0.51356  0.28592  1
 C  C12  1  0.44640  0.48644  0.71408  1
 C  C13  1  0.49840  0.32064  0.76309  1
 C  C14  1  0.30224  0.72882  0.12857  1
 C  C15  1  0.69776  0.27118  0.87143  1
 C  C16  1  0.79654  0.54793  0.88532  1
 C  C17  1  0.84736  0.38423  0.93343  1
 C  C18  1  0.82847  0.30984  0.43824  1
 H  H1  1  0.73991  0.14507  0.91137  1
 H  H2  1  0.06697  0.76162  0.64923  1
 H  H3  1  0.62901  0.26113  0.47734  1
 H  H4  1  0.37099  0.73887  0.52266  1
 H  H5  1  -0.01440  0.30940  0.52422  1
 H  H6  1  0.93303  0.23838  0.35077  1
 H  H7  1  0.78464  -0.00147  0.31813  1
 H  H8  1  0.69939  0.95587  0.14115  1
 H  H9  1  0.30061  0.04413  0.85885  1
 H  H10  1  0.21536  0.00147  0.68187  1
 H  H11  1  0.40309  0.00644  0.26671  1
 H  H12  1  0.59691  0.99356  0.73329  1
 H  H13  1  0.44367  0.27484  0.25756  1
 H  H14  1  0.55633  0.72516  0.74244  1
 H  H15  1  0.26009  0.85493  0.08863  1
 H  H16  1  0.01440  0.69060  0.47578  1
 O  O1  1  0.34001  0.22218  0.69741  1
 O  O2  1  0.90782  0.81466  0.90383  1
 O  O3  1  0.65999  0.77782  0.30259  1
 O  O4  1  0.24702  0.52292  0.60933  1
 O  O5  1  0.09218  0.18534  0.09617  1
 O  O6  1  0.75298  0.47708  0.39067  1
