CIF file written using JARVIS-Tools package.
data_LiFeP2O7
_symmetry_space_group_name_H-M  'P-1'
_cell_length_a       6.32227
_cell_length_b       6.33733
_cell_length_c       6.78833
_cell_angle_alpha    83.3388
_cell_angle_beta     67.1375
_cell_angle_gamma    81.1225

_symmetry_Int_Tables_number  2
_chemical_formula_structural  LiFeP2O7
_chemical_formula_sum  Li2Fe2P4O4
_cell_volume  247.14448934527337
_cell_formula_units_Z  2
loop_
  _symmetry_equiv_pos_site_id
 _symmetry_equiv_pos_as_xyz
 1  'x, y, z'
loop_
 _atom_site_type_symbol
 _atom_site_label
 _atom_site_symmetry_multiplicity
 _atom_site_fract_x
 _atom_site_fract_y
 _atom_site_fract_z
 _atom_site_fract_occupancy
 Fe  Fe1  1  0.09735  0.65000  0.77456  1
 Fe  Fe2  1  0.90265  0.35001  0.22544  1
 Li  Li1  1  0.70516  0.01189  0.82534  1
 Li  Li2  1  0.29484  0.98811  0.17466  1
 O  O1  1  0.22111  0.60230  0.46053  1
 O  O2  1  0.61673  0.96066  0.13251  1
 O  O3  1  0.77918  0.69175  0.76963  1
 O  O4  1  0.93539  0.02898  0.25269  1
 O  O5  1  0.36456  0.21417  0.52908  1
 O  O6  1  0.38327  0.03935  0.86749  1
 O  O7  1  0.04907  0.33121  0.87974  1
 O  O8  1  0.63544  0.78583  0.47092  1
 O  O9  1  0.59984  0.41597  0.20516  1
 O  O10  1  0.22082  0.30825  0.23037  1
 O  O11  1  0.40016  0.58403  0.79484  1
 O  O12  1  0.95093  0.66879  0.12026  1
 O  O13  1  0.77889  0.39770  0.53947  1
 O  O14  1  0.06461  0.97102  0.74732  1
 P  P1  1  0.78637  0.86653  0.23212  1
 P  P2  1  0.21363  0.13348  0.76788  1
 P  P3  1  0.65227  0.60311  0.65245  1
 P  P4  1  0.34773  0.39690  0.34755  1
