CIF file written using JARVIS-Tools package.
data_BaHfBr
_symmetry_space_group_name_H-M  'Amm2'
_cell_length_a       8.23122
_cell_length_b       3.55441
_cell_length_c       3.31729
_cell_angle_alpha    90
_cell_angle_beta     90
_cell_angle_gamma    102.445

_symmetry_Int_Tables_number  38
_chemical_formula_structural  BaHfBr
_chemical_formula_sum  BaHfBr
_cell_volume  94.77426964459458
_cell_formula_units_Z  1
loop_
  _symmetry_equiv_pos_site_id
 _symmetry_equiv_pos_as_xyz
 1  'x, y, z'
loop_
 _atom_site_type_symbol
 _atom_site_label
 _atom_site_symmetry_multiplicity
 _atom_site_fract_x
 _atom_site_fract_y
 _atom_site_fract_z
 _atom_site_fract_occupancy
 Ba  Ba1  1  0.46307  0.09885  0.00000  1
 Br  Br1  1  0.10185  0.41787  0.00000  1
 Hf  Hf1  1  -0.16295  -0.21437  0.00000  1
