CIF file written using JARVIS-Tools package.
data_Li2MnP2O7
_symmetry_space_group_name_H-M  'C2/c'
_cell_length_a       8.04268
_cell_length_b       8.04268
_cell_length_c       8.70842
_cell_angle_alpha    68.7951
_cell_angle_beta     68.7951
_cell_angle_gamma    34.9157

_symmetry_Int_Tables_number  15
_chemical_formula_structural  Li2MnP2O7
_chemical_formula_sum  Li4Mn2P4O4
_cell_volume  298.3417498790767
_cell_formula_units_Z  2
loop_
  _symmetry_equiv_pos_site_id
 _symmetry_equiv_pos_as_xyz
 1  'x, y, z'
loop_
 _atom_site_type_symbol
 _atom_site_label
 _atom_site_symmetry_multiplicity
 _atom_site_fract_x
 _atom_site_fract_y
 _atom_site_fract_z
 _atom_site_fract_occupancy
 Li  Li1  1  0.81348  0.56736  0.94988  1
 Li  Li2  1  0.43264  0.18652  0.55012  1
 Li  Li3  1  0.56736  0.81348  0.44988  1
 Li  Li4  1  0.18652  0.43264  0.05012  1
 Mn  Mn1  1  0.50000  0.50000  0.50000  1
 Mn  Mn2  1  0.50000  0.50000  0.00000  1
 O  O1  1  0.14579  0.64524  0.15217  1
 O  O2  1  0.05561  0.29704  0.12992  1
 O  O3  1  0.21149  0.58031  0.44042  1
 O  O4  1  0.41969  0.78851  0.05958  1
 O  O5  1  0.78851  0.41969  0.55958  1
 O  O6  1  0.58031  0.21149  0.94042  1
 O  O7  1  0.64524  0.14579  0.65217  1
 O  O8  1  0.05736  0.94264  0.75000  1
 O  O9  1  0.94264  0.05736  0.25000  1
 O  O10  1  0.29704  0.05561  0.62992  1
 O  O11  1  0.94439  0.70296  0.87008  1
 O  O12  1  0.35476  0.85421  0.34783  1
 O  O13  1  0.85421  0.35476  0.84783  1
 O  O14  1  0.70296  0.94439  0.37008  1
 P  P1  1  0.99944  0.20723  0.69192  1
 P  P2  1  0.79277  0.00056  0.80808  1
 P  P3  1  0.00056  0.79277  0.30808  1
 P  P4  1  0.20723  0.99944  0.19192  1
