CIF file written using JARVIS-Tools package.
data_H12C11O3
_symmetry_space_group_name_H-M  'P-1'
_cell_length_a       6.1391
_cell_length_b       8.65299
_cell_length_c       9.15074
_cell_angle_alpha    86.2425
_cell_angle_beta     82.6759
_cell_angle_gamma    68.7804

_symmetry_Int_Tables_number  2
_chemical_formula_structural  H12C11O3
_chemical_formula_sum  H24C22O6
_cell_volume  449.34879277511084
_cell_formula_units_Z  2
loop_
  _symmetry_equiv_pos_site_id
 _symmetry_equiv_pos_as_xyz
 1  'x, y, z'
loop_
 _atom_site_type_symbol
 _atom_site_label
 _atom_site_symmetry_multiplicity
 _atom_site_fract_x
 _atom_site_fract_y
 _atom_site_fract_z
 _atom_site_fract_occupancy
 C  C1  1  0.71555  0.64668  0.17454  1
 C  C2  1  0.28445  0.35332  0.82546  1
 C  C3  1  0.79026  0.74606  0.25654  1
 C  C4  1  0.20974  0.25394  0.74346  1
 C  C5  1  0.06538  0.78359  0.42271  1
 C  C6  1  0.93462  0.21641  0.57729  1
 C  C7  1  -0.00431  0.67681  0.32835  1
 C  C8  1  0.00431  0.32319  0.67165  1
 C  C9  1  0.34657  0.42680  0.38974  1
 C  C10  1  0.12959  0.50673  0.31264  1
 C  C11  1  0.65343  0.57320  0.61026  1
 C  C12  1  0.12794  0.13317  0.15470  1
 C  C13  1  0.94680  0.58705  0.77398  1
 C  C14  1  0.84600  0.47778  0.15921  1
 C  C15  1  0.15400  0.52222  0.84079  1
 C  C16  1  0.77094  0.36341  0.07758  1
 C  C17  1  0.22906  0.63659  0.92242  1
 C  C18  1  0.87204  0.18570  0.13806  1
 C  C19  1  0.12796  0.81430  0.86194  1
 C  C20  1  0.87206  0.86683  0.84530  1
 C  C21  1  0.87041  0.49327  0.68736  1
 C  C22  1  0.05320  0.41295  0.22602  1
 H  H1  1  0.17055  0.63343  0.04143  1
 H  H2  1  0.15620  0.90345  0.93008  1
 H  H3  1  0.57971  0.70812  0.62394  1
 H  H4  1  0.55175  0.70217  0.12397  1
 H  H5  1  0.44825  0.29783  0.87603  1
 H  H6  1  0.52419  0.94555  0.21614  1
 H  H7  1  0.47581  0.05445  0.78386  1
 H  H8  1  0.12702  0.71712  0.52503  1
 H  H9  1  0.87298  0.28288  0.47497  1
 H  H10  1  0.08398  0.10192  0.54831  1
 H  H11  1  0.21053  0.81901  0.36535  1
 H  H12  1  0.42029  0.29188  0.37606  1
 H  H13  1  0.30568  0.45027  0.50855  1
 H  H14  1  0.78947  0.18099  0.63465  1
 H  H15  1  0.91602  0.89808  0.45169  1
 H  H16  1  0.51763  0.52075  0.65109  1
 H  H17  1  0.48237  0.47925  0.34891  1
 H  H18  1  0.21579  0.82517  0.75037  1
 H  H19  1  0.78421  0.17483  0.24963  1
 H  H20  1  0.42215  0.59639  0.91095  1
 H  H21  1  0.57785  0.40361  0.08905  1
 H  H22  1  0.84380  0.09655  0.06992  1
 H  H23  1  0.82945  0.36657  0.95857  1
 H  H24  1  0.69432  0.54973  0.49145  1
 O  O1  1  0.27320  0.99256  0.13243  1
 O  O2  1  0.79560  0.75342  0.79703  1
 O  O3  1  0.33616  0.08926  0.72716  1
 O  O4  1  0.66384  0.91074  0.27284  1
 O  O5  1  0.72680  0.00744  0.86757  1
 O  O6  1  0.20440  0.24658  0.20297  1
