CIF file written using JARVIS-Tools package.
data_H8C11O3
_symmetry_space_group_name_H-M  'P-1'
_cell_length_a       6.68815
_cell_length_b       6.61682
_cell_length_c       10.0655
_cell_angle_alpha    85.93
_cell_angle_beta     74.1761
_cell_angle_gamma    69.4824

_symmetry_Int_Tables_number  2
_chemical_formula_structural  H8C11O3
_chemical_formula_sum  H6C22O6
_cell_volume  401.22547795001844
_cell_formula_units_Z  2
loop_
  _symmetry_equiv_pos_site_id
 _symmetry_equiv_pos_as_xyz
 1  'x, y, z'
loop_
 _atom_site_type_symbol
 _atom_site_label
 _atom_site_symmetry_multiplicity
 _atom_site_fract_x
 _atom_site_fract_y
 _atom_site_fract_z
 _atom_site_fract_occupancy
 C  C1  1  0.77308  0.62422  0.89665  1
 C  C2  1  0.75656  0.93166  0.56096  1
 C  C3  1  0.21091  0.10784  0.58698  1
 C  C4  1  0.78909  0.89216  0.41302  1
 C  C5  1  0.22874  0.91631  0.67116  1
 C  C6  1  0.19274  0.93209  0.82114  1
 C  C7  1  0.77126  0.08369  0.32884  1
 C  C8  1  0.24344  0.06834  0.43904  1
 C  C9  1  0.27450  0.71965  0.61230  1
 C  C10  1  0.31615  0.98034  0.15900  1
 C  C11  1  0.29907  0.85773  0.38926  1
 C  C12  1  0.70093  0.14227  0.61074  1
 C  C13  1  0.33972  0.81087  0.24976  1
 C  C14  1  0.66028  0.18913  0.75024  1
 C  C15  1  0.68385  0.01966  0.84100  1
 C  C16  1  0.25505  0.19591  0.20442  1
 C  C17  1  0.74495  0.80409  0.79558  1
 C  C18  1  0.22171  0.23643  0.34426  1
 C  C19  1  0.77829  0.76357  0.65574  1
 C  C20  1  0.72550  0.28035  0.38770  1
 C  C21  1  0.80726  0.06791  0.17886  1
 C  C22  1  0.22692  0.37578  0.10335  1
 H  H1  1  0.82691  0.59960  0.61582  1
 H  H2  1  0.28242  0.57332  0.67037  1
 H  H3  1  0.13888  0.09858  0.86368  1
 H  H4  1  0.86112  0.90142  0.13632  1
 H  H5  1  0.82567  0.66277  0.98295  1
 H  H6  1  0.38458  0.40367  0.05895  1
 H  H7  1  0.10396  0.52690  0.15381  1
 H  H8  1  0.89604  0.47310  0.84619  1
 H  H9  1  0.61542  0.59633  0.94105  1
 H  H10  1  0.71758  0.42668  0.32963  1
 H  H11  1  0.38544  0.64498  0.21462  1
 H  H12  1  0.61456  0.35502  0.78538  1
 H  H13  1  0.33882  0.94481  0.05090  1
 H  H14  1  0.66118  0.05519  0.94910  1
 H  H15  1  0.17309  0.40040  0.38418  1
 H  H16  1  0.17433  0.33723  0.01705  1
 O  O1  1  0.21863  0.77537  0.89720  1
 O  O2  1  0.82706  0.70987  0.36462  1
 O  O3  1  0.68733  0.31516  0.52303  1
 O  O4  1  0.31267  0.68484  0.47697  1
 O  O5  1  0.78137  0.22463  0.10280  1
 O  O6  1  0.17294  0.29013  0.63538  1
