CIF file written using JARVIS-Tools package.
data_Li3FeCu3O8
_symmetry_space_group_name_H-M  'R-3m'
_cell_length_a       5.79064
_cell_length_b       5.79064
_cell_length_c       5.79064
_cell_angle_alpha    60.7358
_cell_angle_beta     60.7358
_cell_angle_gamma    60.7358

_symmetry_Int_Tables_number  166
_chemical_formula_structural  Li3FeCu3O8
_chemical_formula_sum  Li3FeCu3O8
_cell_volume  139.57768540911778
_cell_formula_units_Z  1
loop_
  _symmetry_equiv_pos_site_id
 _symmetry_equiv_pos_as_xyz
 1  'x, y, z'
loop_
 _atom_site_type_symbol
 _atom_site_label
 _atom_site_symmetry_multiplicity
 _atom_site_fract_x
 _atom_site_fract_y
 _atom_site_fract_z
 _atom_site_fract_occupancy
 Cu  Cu1  1  0.50000  0.50000  0.00000  1
 Cu  Cu2  1  0.00000  0.50000  0.50000  1
 Cu  Cu3  1  0.50000  0.00000  0.50000  1
 Fe  Fe1  1  0.00000  0.00000  0.00000  1
 Li  Li1  1  0.00000  0.00000  0.50000  1
 Li  Li2  1  0.50000  0.00000  0.00000  1
 Li  Li3  1  0.00000  0.50000  0.00000  1
 O  O1  1  0.26243  0.26243  0.26243  1
 O  O2  1  0.77441  0.77441  0.22947  1
 O  O3  1  0.22947  0.77441  0.77441  1
 O  O4  1  0.73757  0.73757  0.73757  1
 O  O5  1  0.77441  0.22947  0.77441  1
 O  O6  1  0.22559  0.22559  0.77053  1
 O  O7  1  0.77053  0.22559  0.22559  1
 O  O8  1  0.22559  0.77053  0.22559  1
