CIF file written using JARVIS-Tools package.
data_Li4Nb3Co3Sn2O16
_symmetry_space_group_name_H-M  'Cm'
_cell_length_a       5.85863
_cell_length_b       5.85864
_cell_length_c       10.0437
_cell_angle_alpha    89.8718
_cell_angle_beta     89.8719
_cell_angle_gamma    61.6076

_symmetry_Int_Tables_number  8
_chemical_formula_structural  Li4Nb3Co3Sn2O16
_chemical_formula_sum  Li4Nb3Co3Sn2O6
_cell_volume  303.267723103115
_cell_formula_units_Z  1
loop_
  _symmetry_equiv_pos_site_id
 _symmetry_equiv_pos_as_xyz
 1  'x, y, z'
loop_
 _atom_site_type_symbol
 _atom_site_label
 _atom_site_symmetry_multiplicity
 _atom_site_fract_x
 _atom_site_fract_y
 _atom_site_fract_z
 _atom_site_fract_occupancy
 Co  Co1  1  0.81007  0.81007  0.28371  1
 Co  Co2  1  0.65516  0.16700  0.78520  1
 Co  Co3  1  0.16700  0.65516  0.78520  1
 Li  Li1  1  0.33704  0.33704  0.09387  1
 Li  Li2  1  0.97864  0.97864  0.51257  1
 Li  Li3  1  0.98773  0.98773  0.00631  1
 Li  Li4  1  0.66894  0.66894  0.61468  1
 Nb  Nb1  1  0.17898  0.17898  0.78564  1
 Nb  Nb2  1  0.83999  0.35428  0.28694  1
 Nb  Nb3  1  0.35428  0.83999  0.28694  1
 O  O1  1  0.48483  0.48483  0.67663  1
 O  O2  1  0.68062  0.16696  0.40023  1
 O  O3  1  0.51529  0.51529  0.16075  1
 O  O4  1  0.33871  0.33871  0.90137  1
 O  O5  1  -0.00479  -0.00479  0.69363  1
 O  O6  1  -0.00090  -0.00090  0.19069  1
 O  O7  1  0.16696  0.68062  0.40023  1
 O  O8  1  0.03266  0.48743  0.65818  1
 O  O9  1  0.83923  0.31319  0.89609  1
 O  O10  1  0.97389  0.50777  0.14601  1
 O  O11  1  0.50777  0.97389  0.14601  1
 O  O12  1  0.65941  0.65941  0.41964  1
 O  O13  1  0.48743  0.03266  0.65818  1
 O  O14  1  0.83968  0.83968  0.88879  1
 O  O15  1  0.17267  0.17267  0.40645  1
 O  O16  1  0.31319  0.83923  0.89609  1
 Sn  Sn1  1  0.66739  0.66739  0.99720  1
 Sn  Sn2  1  0.35150  0.35150  0.51494  1
