CIF file written using JARVIS-Tools package.
data_LiCoP2O7
_symmetry_space_group_name_H-M  'C2'
_cell_length_a       5.08949
_cell_length_b       5.08949
_cell_length_c       4.38816
_cell_angle_alpha    81.5854
_cell_angle_beta     81.5854
_cell_angle_gamma    102.349

_symmetry_Int_Tables_number  5
_chemical_formula_structural  LiCoP2O7
_chemical_formula_sum  LiCoP2O7
_cell_volume  107.96939519344555
_cell_formula_units_Z  1
loop_
  _symmetry_equiv_pos_site_id
 _symmetry_equiv_pos_as_xyz
 1  'x, y, z'
loop_
 _atom_site_type_symbol
 _atom_site_label
 _atom_site_symmetry_multiplicity
 _atom_site_fract_x
 _atom_site_fract_y
 _atom_site_fract_z
 _atom_site_fract_occupancy
 Co  Co1  1  0.05953  0.94047  0.50000  1
 Li  Li1  1  0.69015  0.30985  0.50000  1
 O  O1  1  0.00475  0.24034  0.22468  1
 O  O2  1  0.06318  0.59929  0.75787  1
 O  O3  1  0.28917  0.19913  0.69186  1
 O  O4  1  0.40071  0.93682  0.24213  1
 O  O5  1  0.48122  0.51878  0.00000  1
 O  O6  1  0.75966  0.99525  0.77532  1
 O  O7  1  0.80087  0.71083  0.30814  1
 P  P1  1  0.61322  0.80695  0.09142  1
 P  P2  1  0.19305  0.38678  0.90858  1
