CIF file written using JARVIS-Tools package.
data_H5C5O2
_symmetry_space_group_name_H-M  'P-1'
_cell_length_a       5.70229
_cell_length_b       7.71124
_cell_length_c       10.3384
_cell_angle_alpha    76.3237
_cell_angle_beta     80.7335
_cell_angle_gamma    76.2799

_symmetry_Int_Tables_number  2
_chemical_formula_structural  H5C5O2
_chemical_formula_sum  H20C20O8
_cell_volume  426.4452229193013
_cell_formula_units_Z  4
loop_
  _symmetry_equiv_pos_site_id
 _symmetry_equiv_pos_as_xyz
 1  'x, y, z'
loop_
 _atom_site_type_symbol
 _atom_site_label
 _atom_site_symmetry_multiplicity
 _atom_site_fract_x
 _atom_site_fract_y
 _atom_site_fract_z
 _atom_site_fract_occupancy
 C  C1  1  0.79957  0.22099  0.78213  1
 C  C2  1  0.20043  0.77901  0.21787  1
 C  C3  1  0.21432  0.25154  0.01535  1
 C  C4  1  0.12107  0.17303  0.91892  1
 C  C5  1  0.78568  0.74846  0.98465  1
 C  C6  1  0.22234  0.49593  0.62628  1
 C  C7  1  0.87893  0.82697  0.08108  1
 C  C8  1  0.77766  0.50407  0.37372  1
 C  C9  1  0.59320  0.37432  0.73483  1
 C  C10  1  0.80920  0.33996  0.33314  1
 C  C11  1  0.19080  0.66004  0.66686  1
 C  C12  1  0.42310  0.35320  0.65677  1
 C  C13  1  0.40680  0.62568  0.26517  1
 C  C14  1  0.57690  0.64680  0.34323  1
 C  C15  1  0.56084  0.54200  0.77222  1
 C  C16  1  0.63597  0.31588  0.26159  1
 C  C17  1  0.36403  0.68412  0.73841  1
 C  C18  1  0.43916  0.45800  0.22778  1
 C  C19  1  0.45591  0.18895  0.59979  1
 C  C20  1  0.54409  0.81105  0.40021  1
 H  H1  1  0.68556  0.91763  0.51570  1
 H  H2  1  0.31444  0.08237  0.48430  1
 H  H3  1  0.09196  0.24073  0.10930  1
 H  H4  1  0.90804  0.75927  0.89070  1
 H  H5  1  0.21275  0.39680  0.97499  1
 H  H6  1  0.78725  0.60320  0.02501  1
 H  H7  1  0.39819  0.17681  0.03520  1
 H  H8  1  0.09082  0.47613  0.56918  1
 H  H9  1  0.26675  0.90325  0.16767  1
 H  H10  1  0.93764  0.18712  0.69999  1
 H  H11  1  0.06236  0.81288  0.30001  1
 H  H12  1  0.73325  0.09675  0.83233  1
 H  H13  1  0.90918  0.52387  0.43082  1
 H  H14  1  0.03469  0.76905  0.64101  1
 H  H15  1  0.96531  0.23095  0.35899  1
 H  H16  1  0.34473  0.81234  0.76982  1
 H  H17  1  0.65527  0.18766  0.23018  1
 H  H18  1  0.69181  0.56034  0.83031  1
 H  H19  1  0.30819  0.43966  0.16969  1
 H  H20  1  0.60181  0.82319  0.96480  1
 O  O1  1  0.91032  0.27897  0.87817  1
 O  O2  1  0.78042  0.96885  0.11891  1
 O  O3  1  0.35777  0.93509  0.39285  1
 O  O4  1  0.64223  0.06491  0.60715  1
 O  O5  1  0.72746  0.81339  0.46474  1
 O  O6  1  0.27254  0.18661  0.53526  1
 O  O7  1  0.08968  0.72103  0.12183  1
 O  O8  1  0.21958  0.03115  0.88109  1
