CIF file written using JARVIS-Tools package.
data_Li2TiFe3O8
_symmetry_space_group_name_H-M  'P6_3mc'
_cell_length_a       5.6529
_cell_length_b       5.6529
_cell_length_c       9.34425
_cell_angle_alpha    90
_cell_angle_beta     90
_cell_angle_gamma    120

_symmetry_Int_Tables_number  186
_chemical_formula_structural  Li2TiFe3O8
_chemical_formula_sum  Li4Ti2Fe6O6
_cell_volume  258.59371120583654
_cell_formula_units_Z  2
loop_
  _symmetry_equiv_pos_site_id
 _symmetry_equiv_pos_as_xyz
 1  'x, y, z'
loop_
 _atom_site_type_symbol
 _atom_site_label
 _atom_site_symmetry_multiplicity
 _atom_site_fract_x
 _atom_site_fract_y
 _atom_site_fract_z
 _atom_site_fract_occupancy
 Fe  Fe1  1  0.34716  0.17358  0.71540  1
 Fe  Fe2  1  0.65284  0.82642  0.21540  1
 Fe  Fe3  1  0.17358  0.82642  0.21540  1
 Fe  Fe4  1  0.17358  0.34716  0.21540  1
 Fe  Fe5  1  0.82642  0.65284  0.71540  1
 Fe  Fe6  1  0.82642  0.17358  0.71540  1
 Li  Li1  1  0.33333  0.66667  0.89398  1
 Li  Li2  1  0.66667  0.33333  0.39398  1
 Li  Li3  1  0.00000  0.00000  0.49595  1
 Li  Li4  1  0.00000  0.00000  0.99595  1
 O  O1  1  0.16497  0.83503  0.60053  1
 O  O2  1  0.03492  0.51746  0.33769  1
 O  O3  1  0.33333  0.66667  0.10208  1
 O  O4  1  0.00000  0.00000  0.30609  1
 O  O5  1  0.00000  0.00000  0.80609  1
 O  O6  1  0.16497  0.32994  0.60053  1
 O  O7  1  0.96508  0.48254  0.83769  1
 O  O8  1  0.48254  0.51746  0.33769  1
 O  O9  1  0.83503  0.67006  0.10053  1
 O  O10  1  0.51746  0.48254  0.83769  1
 O  O11  1  0.51746  0.03492  0.83769  1
 O  O12  1  0.66667  0.33333  0.60208  1
 O  O13  1  0.48254  0.96508  0.33769  1
 O  O14  1  0.32994  0.16497  0.10053  1
 O  O15  1  0.67006  0.83503  0.60053  1
 O  O16  1  0.83503  0.16497  0.10053  1
 Ti  Ti1  1  0.66667  0.33333  0.99610  1
 Ti  Ti2  1  0.33333  0.66667  0.49610  1
