CIF file written using JARVIS-Tools package.
data_H6C6O
_symmetry_space_group_name_H-M  'P2_1/c'
_cell_length_a       6.9292
_cell_length_b       9.92036
_cell_length_c       6.41848
_cell_angle_alpha    90
_cell_angle_beta     94.7687
_cell_angle_gamma    90

_symmetry_Int_Tables_number  14
_chemical_formula_structural  H6C6O
_chemical_formula_sum  H24C24O4
_cell_volume  439.679523546232
_cell_formula_units_Z  4
loop_
  _symmetry_equiv_pos_site_id
 _symmetry_equiv_pos_as_xyz
 1  'x, y, z'
loop_
 _atom_site_type_symbol
 _atom_site_label
 _atom_site_symmetry_multiplicity
 _atom_site_fract_x
 _atom_site_fract_y
 _atom_site_fract_z
 _atom_site_fract_occupancy
 C  C1  1  0.40617  -0.00016  0.94412  1
 C  C2  1  0.61809  0.42667  0.74855  1
 C  C3  1  0.61809  0.07333  0.24855  1
 C  C4  1  0.15959  0.84657  0.47127  1
 C  C5  1  0.15959  0.65343  0.97127  1
 C  C6  1  0.84041  0.34657  0.02873  1
 C  C7  1  0.84041  0.15343  0.52873  1
 C  C8  1  0.59383  0.49984  0.55588  1
 C  C9  1  0.38191  0.92667  0.75145  1
 C  C10  1  0.40617  0.50016  0.44412  1
 C  C11  1  0.53525  0.64161  0.17493  1
 C  C12  1  0.74938  0.93013  0.97419  1
 C  C13  1  0.74938  0.56987  0.47419  1
 C  C14  1  0.25062  0.43013  0.52581  1
 C  C15  1  0.28090  0.13863  0.21222  1
 C  C16  1  0.71910  0.86137  0.78778  1
 C  C17  1  0.71910  0.63863  0.28778  1
 C  C18  1  0.28090  0.36137  0.71222  1
 C  C19  1  0.46475  0.14161  0.32507  1
 C  C20  1  0.53525  0.85839  0.67493  1
 C  C21  1  0.46475  0.35839  0.82507  1
 C  C22  1  0.25062  0.06987  0.02581  1
 C  C23  1  0.38191  0.57333  0.25145  1
 C  C24  1  0.59383  0.00016  0.05588  1
 H  H1  1  0.48260  0.30315  0.97159  1
 H  H2  1  0.99188  0.36609  0.08174  1
 H  H3  1  0.74720  0.12433  0.65159  1
 H  H4  1  0.74720  0.37567  0.15159  1
 H  H5  1  0.25280  0.62433  0.84841  1
 H  H6  1  0.18194  0.73946  0.51056  1
 H  H7  1  0.81806  0.26054  0.48944  1
 H  H8  1  0.18194  0.76054  0.01056  1
 H  H9  1  0.00812  0.86609  0.41826  1
 H  H10  1  0.99188  0.13391  0.58174  1
 H  H11  1  0.10872  0.06836  0.93992  1
 H  H12  1  0.00812  0.63391  0.91826  1
 H  H13  1  0.81806  0.23946  0.98944  1
 H  H14  1  0.89128  0.93164  0.06008  1
 H  H15  1  0.89128  0.56836  0.56008  1
 H  H16  1  0.10872  0.43164  0.43992  1
 H  H17  1  0.16175  0.19176  0.27617  1
 H  H18  1  0.83825  0.80824  0.72383  1
 H  H19  1  0.83825  0.69176  0.22383  1
 H  H20  1  0.16175  0.30824  0.77617  1
 H  H21  1  0.48260  0.19685  0.47159  1
 H  H22  1  0.51740  0.80315  0.52841  1
 H  H23  1  0.51740  0.69685  0.02841  1
 H  H24  1  0.25280  0.87567  0.34841  1
 O  O1  1  0.19809  0.57082  0.15471  1
 O  O2  1  0.80191  0.42918  0.84529  1
 O  O3  1  0.80191  0.07082  0.34529  1
 O  O4  1  0.19809  0.92918  0.65471  1
