CIF file written using JARVIS-Tools package.
data_Li2MnCl4
_symmetry_space_group_name_H-M  'Imma'
_cell_length_a       7.36085
_cell_length_b       7.36086
_cell_length_c       7.36086
_cell_angle_alpha    120.335
_cell_angle_beta     119.179
_cell_angle_gamma    90.4243

_symmetry_Int_Tables_number  74
_chemical_formula_structural  Li2MnCl4
_chemical_formula_sum  Li4Mn2Cl8
_cell_volume  283.0053853712502
_cell_formula_units_Z  2
loop_
  _symmetry_equiv_pos_site_id
 _symmetry_equiv_pos_as_xyz
 1  'x, y, z'
loop_
 _atom_site_type_symbol
 _atom_site_label
 _atom_site_symmetry_multiplicity
 _atom_site_fract_x
 _atom_site_fract_y
 _atom_site_fract_z
 _atom_site_fract_occupancy
 Cl  Cl1  1  0.25166  0.76145  0.00979  1
 Cl  Cl2  1  0.25166  0.24187  0.49021  1
 Cl  Cl3  1  0.25463  0.23951  0.01512  1
 Cl  Cl4  1  0.72439  0.23951  0.48488  1
 Cl  Cl5  1  0.27561  0.76049  0.51512  1
 Cl  Cl6  1  0.74537  0.76049  0.98488  1
 Cl  Cl7  1  0.74834  0.75813  0.50979  1
 Cl  Cl8  1  0.74834  0.23855  0.99021  1
 Li  Li1  1  0.11059  0.36059  0.75000  1
 Li  Li2  1  0.50000  0.00000  -0.00000  1
 Li  Li3  1  0.50000  0.50000  0.50000  1
 Li  Li4  1  0.88941  0.63941  0.25000  1
 Mn  Mn1  1  0.50000  0.00000  0.50000  1
 Mn  Mn2  1  0.00000  0.00000  0.00000  1
