CIF file written using JARVIS-Tools package.
data_CoPO4
_symmetry_space_group_name_H-M  'Pnma'
_cell_length_a       4.53649
_cell_length_b       5.41641
_cell_length_c       9.53076
_cell_angle_alpha    90
_cell_angle_beta     90
_cell_angle_gamma    90

_symmetry_Int_Tables_number  62
_chemical_formula_structural  CoPO4
_chemical_formula_sum  Co4P4O6
_cell_volume  234.18479695830192
_cell_formula_units_Z  4
loop_
  _symmetry_equiv_pos_site_id
 _symmetry_equiv_pos_as_xyz
 1  'x, y, z'
loop_
 _atom_site_type_symbol
 _atom_site_label
 _atom_site_symmetry_multiplicity
 _atom_site_fract_x
 _atom_site_fract_y
 _atom_site_fract_z
 _atom_site_fract_occupancy
 Co  Co1  1  0.44645  0.75000  0.23431  1
 Co  Co2  1  0.94645  0.25000  0.26569  1
 Co  Co3  1  0.05355  0.75000  0.73431  1
 Co  Co4  1  0.55355  0.25000  0.76569  1
 O  O1  1  0.68999  0.75000  0.07042  1
 O  O2  1  0.71663  0.25000  0.10322  1
 O  O3  1  0.21922  0.02942  0.16455  1
 O  O4  1  0.28337  0.75000  0.89678  1
 O  O5  1  0.71922  0.52942  0.33545  1
 O  O6  1  0.71922  0.97058  0.33545  1
 O  O7  1  0.21922  0.47058  0.16455  1
 O  O8  1  0.18999  0.25000  0.42958  1
 O  O9  1  0.81001  0.75000  0.57042  1
 O  O10  1  0.28078  0.02942  0.66455  1
 O  O11  1  0.21663  0.75000  0.39678  1
 O  O12  1  0.28078  0.47058  0.66455  1
 O  O13  1  0.78078  0.52942  0.83545  1
 O  O14  1  0.78078  0.97058  0.83545  1
 O  O15  1  0.78337  0.25000  0.60322  1
 O  O16  1  0.31001  0.25000  0.92958  1
 P  P1  1  0.61585  0.75000  0.91518  1
 P  P2  1  0.11585  0.25000  0.58482  1
 P  P3  1  0.88415  0.75000  0.41518  1
 P  P4  1  0.38415  0.25000  0.08482  1
