CIF file written using JARVIS-Tools package.
data_Li4Co3Sn3Sb2O16
_symmetry_space_group_name_H-M  'Cm'
_cell_length_a       6.15099
_cell_length_b       6.15099
_cell_length_c       9.75593
_cell_angle_alpha    89.5429
_cell_angle_beta     89.5429
_cell_angle_gamma    59.529

_symmetry_Int_Tables_number  8
_chemical_formula_structural  Li4Co3Sn3Sb2O16
_chemical_formula_sum  Li4Co3Sn3Sb2O6
_cell_volume  318.11968875891284
_cell_formula_units_Z  1
loop_
  _symmetry_equiv_pos_site_id
 _symmetry_equiv_pos_as_xyz
 1  'x, y, z'
loop_
 _atom_site_type_symbol
 _atom_site_label
 _atom_site_symmetry_multiplicity
 _atom_site_fract_x
 _atom_site_fract_y
 _atom_site_fract_z
 _atom_site_fract_occupancy
 Co  Co1  1  0.83345  0.83345  0.77854  1
 Co  Co2  1  0.19021  0.65209  0.28846  1
 Co  Co3  1  0.65209  0.19021  0.28846  1
 Li  Li1  1  0.66193  0.66193  0.10421  1
 Li  Li2  1  0.91069  0.91069  0.04058  1
 Li  Li3  1  0.99101  0.99101  0.50182  1
 Li  Li4  1  0.33469  0.33469  0.59216  1
 O  O1  1  0.33873  0.83368  0.40800  1
 O  O2  1  0.48699  0.48699  0.14980  1
 O  O3  1  0.67069  0.67069  0.90084  1
 O  O4  1  0.00466  0.00466  0.68918  1
 O  O5  1  -0.00192  -0.00192  0.20045  1
 O  O6  1  0.83368  0.33873  0.40800  1
 O  O7  1  0.52021  0.52021  0.65564  1
 O  O8  1  0.96534  0.51831  0.65191  1
 O  O9  1  0.83697  0.83697  0.40409  1
 O  O10  1  0.16544  0.67527  0.90562  1
 O  O11  1  0.48988  0.03819  0.14491  1
 O  O12  1  0.33173  0.33173  0.39389  1
 O  O13  1  0.51831  0.96534  0.65191  1
 O  O14  1  0.18082  0.18082  0.89870  1
 O  O15  1  0.03819  0.48988  0.14491  1
 O  O16  1  0.67527  0.16544  0.90562  1
 Sb  Sb1  1  0.34469  0.34469  0.01469  1
 Sb  Sb2  1  0.67653  0.67653  0.50582  1
 Sn  Sn1  1  0.34105  0.83743  0.79065  1
 Sn  Sn2  1  0.17064  0.17064  0.28264  1
 Sn  Sn3  1  0.83743  0.34105  0.79065  1
