CIF file written using JARVIS-Tools package.
data_Ni2P2O7
_symmetry_space_group_name_H-M  'P2_1/c'
_cell_length_a       4.46622
_cell_length_b       5.2251
_cell_length_c       9.8968
_cell_angle_alpha    90
_cell_angle_beta     90
_cell_angle_gamma    97.2807

_symmetry_Int_Tables_number  14
_chemical_formula_structural  Ni2P2O7
_chemical_formula_sum  Ni4P4O4
_cell_volume  229.0935455720913
_cell_formula_units_Z  2
loop_
  _symmetry_equiv_pos_site_id
 _symmetry_equiv_pos_as_xyz
 1  'x, y, z'
loop_
 _atom_site_type_symbol
 _atom_site_label
 _atom_site_symmetry_multiplicity
 _atom_site_fract_x
 _atom_site_fract_y
 _atom_site_fract_z
 _atom_site_fract_occupancy
 Ni  Ni1  1  0.09928  0.42075  0.65679  1
 Ni  Ni2  1  0.09928  0.92075  0.84321  1
 Ni  Ni3  1  0.90072  0.57925  0.34321  1
 Ni  Ni4  1  0.90072  0.07925  0.15679  1
 O  O1  1  0.50000  0.50000  0.00000  1
 O  O2  1  0.50000  0.00000  0.50000  1
 O  O3  1  0.21477  0.37667  0.45747  1
 O  O4  1  0.88743  0.03806  0.67774  1
 O  O5  1  0.11257  0.46194  0.17774  1
 O  O6  1  0.11257  0.96194  0.32226  1
 O  O7  1  0.38522  0.73994  0.70733  1
 O  O8  1  0.38522  0.23994  0.79267  1
 O  O9  1  0.61478  0.26006  0.29267  1
 O  O10  1  0.88743  0.53806  0.82226  1
 O  O11  1  0.78523  0.62333  0.54253  1
 O  O12  1  0.78523  0.12333  0.95747  1
 O  O13  1  0.61478  0.76006  0.20733  1
 O  O14  1  0.21477  0.87667  0.04253  1
 P  P1  1  0.64451  0.84275  0.61221  1
 P  P2  1  0.35549  0.65725  0.11221  1
 P  P3  1  0.64451  0.34275  0.88779  1
 P  P4  1  0.35549  0.15725  0.38779  1
