CIF file written using JARVIS-Tools package.
data_LiMnPO4
_symmetry_space_group_name_H-M  'Pnma'
_cell_length_a       4.92439
_cell_length_b       6.35822
_cell_length_c       9.38874
_cell_angle_alpha    89.9999
_cell_angle_beta     89.9999
_cell_angle_gamma    89.9999

_symmetry_Int_Tables_number  62
_chemical_formula_structural  LiMnPO4
_chemical_formula_sum  Li4Mn4P4O6
_cell_volume  293.96475142870133
_cell_formula_units_Z  4
loop_
  _symmetry_equiv_pos_site_id
 _symmetry_equiv_pos_as_xyz
 1  'x, y, z'
loop_
 _atom_site_type_symbol
 _atom_site_label
 _atom_site_symmetry_multiplicity
 _atom_site_fract_x
 _atom_site_fract_y
 _atom_site_fract_z
 _atom_site_fract_occupancy
 Li  Li1  1  0.01858  0.25001  0.66634  1
 Li  Li2  1  0.48142  0.25000  0.16634  1
 Li  Li3  1  0.98142  0.75000  0.33366  1
 Li  Li4  1  0.51858  0.74999  0.83366  1
 Mn  Mn1  1  0.99998  0.50002  0.00001  1
 Mn  Mn2  1  0.49998  0.49998  0.49999  1
 Mn  Mn3  1  0.00001  0.00002  0.99999  1
 Mn  Mn4  1  0.50003  0.99998  0.50001  1
 O  O1  1  0.58372  0.25000  0.65504  1
 O  O2  1  0.21095  0.25000  0.85550  1
 O  O3  1  0.28905  0.25000  0.35550  1
 O  O4  1  0.91628  0.25000  0.15504  1
 O  O5  1  0.41628  0.75000  0.34496  1
 O  O6  1  0.34828  0.95148  0.11877  1
 O  O7  1  0.78904  0.75000  0.14450  1
 O  O8  1  0.08372  0.75000  0.84496  1
 O  O9  1  0.84830  0.04852  0.38123  1
 O  O10  1  0.34829  0.54853  0.11877  1
 O  O11  1  0.84830  0.45147  0.38123  1
 O  O12  1  0.65171  0.45147  0.88123  1
 O  O13  1  0.71095  0.75000  0.64450  1
 O  O14  1  0.15172  0.54853  0.61877  1
 O  O15  1  0.65170  0.04852  0.88123  1
 O  O16  1  0.15171  0.95148  0.61877  1
 P  P1  1  0.97846  0.25000  0.32048  1
 P  P2  1  0.52154  0.25000  0.82048  1
 P  P3  1  0.02154  0.75001  0.67952  1
 P  P4  1  0.47846  0.75000  0.17952  1
