CIF file written using JARVIS-Tools package.
data_HC
_symmetry_space_group_name_H-M  'P2_1/c'
_cell_length_a       5.54595
_cell_length_b       5.48719
_cell_length_c       7.67052
_cell_angle_alpha    90
_cell_angle_beta     110.639
_cell_angle_gamma    90

_symmetry_Int_Tables_number  14
_chemical_formula_structural  HC
_chemical_formula_sum  H2C2
_cell_volume  218.44567334815758
_cell_formula_units_Z  12
loop_
  _symmetry_equiv_pos_site_id
 _symmetry_equiv_pos_as_xyz
 1  'x, y, z'
loop_
 _atom_site_type_symbol
 _atom_site_label
 _atom_site_symmetry_multiplicity
 _atom_site_fract_x
 _atom_site_fract_y
 _atom_site_fract_z
 _atom_site_fract_occupancy
 C  C1  1  0.67833  0.32354  0.49399  1
 C  C2  1  0.32167  0.67646  0.50601  1
 C  C3  1  0.75821  0.97779  0.11467  1
 C  C4  1  0.24179  0.02221  0.88533  1
 C  C5  1  0.24179  0.47779  0.38533  1
 C  C6  1  0.75821  0.52221  0.61467  1
 C  C7  1  0.42018  0.19874  0.87909  1
 C  C8  1  0.42018  0.30126  0.37909  1
 C  C9  1  0.57982  0.69874  0.62091  1
 C  C10  1  0.67833  0.17646  0.99399  1
 C  C11  1  0.32167  0.82354  0.00601  1
 C  C12  1  0.57982  0.80126  0.12091  1
 H  H1  1  0.96038  0.95990  0.20374  1
 H  H2  1  0.03962  0.45990  0.29626  1
 H  H3  1  0.96038  0.54010  0.70374  1
 H  H4  1  0.63989  0.64660  0.21607  1
 H  H5  1  0.81736  0.18568  0.48761  1
 H  H6  1  0.36011  0.14660  0.28393  1
 H  H7  1  0.63989  0.85340  0.71607  1
 H  H8  1  0.81736  0.31432  0.98761  1
 H  H9  1  0.18264  0.68568  0.01239  1
 H  H10  1  0.18264  0.81432  0.51239  1
 H  H11  1  0.03962  0.04010  0.79626  1
 H  H12  1  0.36011  0.35340  0.78393  1
