CIF file written using JARVIS-Tools package.
data_Ba2ZrO3
_symmetry_space_group_name_H-M  'Immm'
_cell_length_a       7.50131
_cell_length_b       7.50131
_cell_length_c       7.50131
_cell_angle_alpha    149.545
_cell_angle_beta     147.047
_cell_angle_gamma    45.4809

_symmetry_Int_Tables_number  71
_chemical_formula_structural  Ba2ZrO3
_chemical_formula_sum  Ba2ZrO3
_cell_volume  115.9966015248178
_cell_formula_units_Z  1
loop_
  _symmetry_equiv_pos_site_id
 _symmetry_equiv_pos_as_xyz
 1  'x, y, z'
loop_
 _atom_site_type_symbol
 _atom_site_label
 _atom_site_symmetry_multiplicity
 _atom_site_fract_x
 _atom_site_fract_y
 _atom_site_fract_z
 _atom_site_fract_occupancy
 Ba  Ba1  1  0.64935  0.64935  -0.00000  1
 Ba  Ba2  1  0.35065  0.35065  -0.00000  1
 O  O1  1  0.84835  0.84835  -0.00000  1
 O  O2  1  0.15165  0.15165  -0.00000  1
 O  O3  1  0.50000  -0.00000  0.50000  1
 Zr  Zr1  1  0.00000  0.00000  0.00000  1
