CIF file written using JARVIS-Tools package.
data_CdH2C3O4
_symmetry_space_group_name_H-M  'P1'
_cell_length_a       3.97983
_cell_length_b       3.98421
_cell_length_c       6.32337
_cell_angle_alpha    94.0962
_cell_angle_beta     94.0817
_cell_angle_gamma    94.2507

_symmetry_Int_Tables_number  1
_chemical_formula_structural  CdH2C3O4
_chemical_formula_sum  CdH2C3O4
_cell_volume  99.44001226411628
_cell_formula_units_Z  1
loop_
  _symmetry_equiv_pos_site_id
 _symmetry_equiv_pos_as_xyz
 1  'x, y, z'
loop_
 _atom_site_type_symbol
 _atom_site_label
 _atom_site_symmetry_multiplicity
 _atom_site_fract_x
 _atom_site_fract_y
 _atom_site_fract_z
 _atom_site_fract_occupancy
 C  C1  1  0.96648  0.13420  0.80344  1
 C  C2  1  0.01808  0.18622  0.21107  1
 C  C3  1  0.14001  0.30805  0.00582  1
 Cd  Cd1  1  0.56577  0.73244  0.50927  1
 H  H1  1  0.41107  0.27617  0.00892  1
 H  H2  1  0.10750  0.57870  0.00884  1
 O  O1  1  0.78298  0.95071  0.20756  1
 O  O2  1  0.16331  0.33231  0.38401  1
 O  O3  1  0.69783  0.24408  0.72050  1
 O  O4  1  0.07667  0.86559  0.72089  1
