CIF file written using JARVIS-Tools package.
data_LiV2OF5
_symmetry_space_group_name_H-M  'P3_2'
_cell_length_a       5.06658
_cell_length_b       5.06662
_cell_length_c       13.782
_cell_angle_alpha    90.0014
_cell_angle_beta     89.9993
_cell_angle_gamma    119.999

_symmetry_Int_Tables_number  145
_chemical_formula_structural  LiV2OF5
_chemical_formula_sum  Li3V6O3F5
_cell_volume  306.395308506515
_cell_formula_units_Z  3
loop_
  _symmetry_equiv_pos_site_id
 _symmetry_equiv_pos_as_xyz
 1  'x, y, z'
loop_
 _atom_site_type_symbol
 _atom_site_label
 _atom_site_symmetry_multiplicity
 _atom_site_fract_x
 _atom_site_fract_y
 _atom_site_fract_z
 _atom_site_fract_occupancy
 F  F1  1  0.33573  0.31021  0.92210  1
 F  F2  1  0.26866  0.96443  0.08973  1
 F  F3  1  0.36243  0.06467  0.42306  1
 F  F4  1  0.02314  0.69221  0.58878  1
 F  F5  1  0.64113  -0.00240  0.25544  1
 F  F6  1  0.66730  0.98188  0.58582  1
 F  F7  1  0.66360  0.71406  0.09450  1
 F  F8  1  0.36887  0.97088  0.75641  1
 F  F9  1  0.71712  0.66972  0.42785  1
 F  F10  1  0.61926  0.61621  0.76119  1
 F  F11  1  0.98126  0.66604  0.91915  1
 F  F12  1  0.35147  0.35210  0.25248  1
 F  F13  1  0.01939  0.37844  0.75927  1
 F  F14  1  0.95487  0.30761  0.42595  1
 F  F15  1  0.02570  0.31389  0.09262  1
 Li  Li1  1  0.67044  0.34123  0.53696  1
 Li  Li2  1  0.99211  0.99587  0.20363  1
 Li  Li3  1  0.33748  0.66292  0.87029  1
 O  O1  1  0.71749  0.04955  0.91907  1
 O  O2  1  0.28380  0.33462  0.58574  1
 O  O3  1  -0.00128  0.61585  0.25241  1
 V  V1  1  0.34037  0.64127  0.66359  1
 V  V2  1  0.30673  0.66972  0.17426  1
 V  V3  1  0.96757  0.99296  0.99692  1
 V  V4  1  0.66361  0.30367  0.84093  1
 V  V5  1  0.69207  0.36578  0.33025  1
 V  V6  1  0.02967  0.02661  0.50760  1
