CIF file written using JARVIS-Tools package.
data_Li2FeB2O6
_symmetry_space_group_name_H-M  'P2_1/c'
_cell_length_a       7.68897
_cell_length_b       5.33536
_cell_length_c       5.78836
_cell_angle_alpha    60.9584
_cell_angle_beta     90
_cell_angle_gamma    90

_symmetry_Int_Tables_number  14
_chemical_formula_structural  Li2FeB2O6
_chemical_formula_sum  Li4Fe2B4O2
_cell_volume  207.6022202466587
_cell_formula_units_Z  2
loop_
  _symmetry_equiv_pos_site_id
 _symmetry_equiv_pos_as_xyz
 1  'x, y, z'
loop_
 _atom_site_type_symbol
 _atom_site_label
 _atom_site_symmetry_multiplicity
 _atom_site_fract_x
 _atom_site_fract_y
 _atom_site_fract_z
 _atom_site_fract_occupancy
 B  B1  1  0.25845  0.12067  0.13159  1
 B  B2  1  0.75845  0.87933  0.36841  1
 B  B3  1  0.24155  0.12067  0.63159  1
 B  B4  1  0.74155  0.87933  0.86841  1
 Fe  Fe1  1  0.00000  0.00000  0.00000  1
 Fe  Fe2  1  0.50000  0.00000  0.50000  1
 Li  Li1  1  0.43597  0.60819  0.19927  1
 Li  Li2  1  0.93597  0.39181  0.30073  1
 Li  Li3  1  0.06403  0.60819  0.69927  1
 Li  Li4  1  0.56403  0.39181  0.80073  1
 O  O1  1  0.58115  0.77540  0.84608  1
 O  O2  1  0.41885  0.22460  0.15392  1
 O  O3  1  0.73478  0.12275  0.39529  1
 O  O4  1  0.23478  0.87725  0.10471  1
 O  O5  1  0.10495  0.27315  0.08626  1
 O  O6  1  0.26522  0.87725  0.60471  1
 O  O7  1  0.39505  0.27315  0.58626  1
 O  O8  1  0.08115  0.22460  0.65392  1
 O  O9  1  0.76522  0.12275  0.89529  1
 O  O10  1  0.91885  0.77540  0.34608  1
 O  O11  1  0.60495  0.72685  0.41374  1
 O  O12  1  0.89505  0.72685  0.91374  1
