CIF file written using JARVIS-Tools package.
data_RbMoPClO5
_symmetry_space_group_name_H-M  'P4/nmm'
_cell_length_a       6.50023
_cell_length_b       6.50023
_cell_length_c       7.4237
_cell_angle_alpha    90
_cell_angle_beta     90
_cell_angle_gamma    90

_symmetry_Int_Tables_number  129
_chemical_formula_structural  RbMoPClO5
_chemical_formula_sum  Rb2Mo2P2Cl2O0
_cell_volume  313.6738585041531
_cell_formula_units_Z  2
loop_
  _symmetry_equiv_pos_site_id
 _symmetry_equiv_pos_as_xyz
 1  'x, y, z'
loop_
 _atom_site_type_symbol
 _atom_site_label
 _atom_site_symmetry_multiplicity
 _atom_site_fract_x
 _atom_site_fract_y
 _atom_site_fract_z
 _atom_site_fract_occupancy
 Cl  Cl1  1  0.00000  0.50000  0.55660  1
 Cl  Cl2  1  0.50000  0.00000  0.44340  1
 Mo  Mo1  1  0.50000  0.00000  0.09305  1
 Mo  Mo2  1  0.00000  0.50000  0.90695  1
 O  O1  1  0.50000  0.68839  0.12718  1
 O  O2  1  0.00000  0.50000  0.13192  1
 O  O3  1  0.50000  0.31161  0.12718  1
 O  O4  1  0.50000  0.00000  0.86808  1
 O  O5  1  0.18839  0.00000  0.12718  1
 O  O6  1  0.31161  0.50000  0.87282  1
 O  O7  1  0.00000  0.81161  0.87282  1
 O  O8  1  0.00000  0.18839  0.87282  1
 O  O9  1  0.81161  0.00000  0.12718  1
 O  O10  1  0.68839  0.50000  0.87282  1
 P  P1  1  0.00000  0.00000  0.00000  1
 P  P2  1  0.50000  0.50000  0.00000  1
 Rb  Rb1  1  0.50000  0.50000  0.50000  1
 Rb  Rb2  1  0.00000  0.00000  0.50000  1
