CIF file written using JARVIS-Tools package.
data_BaCuSi2O6
_symmetry_space_group_name_H-M  'I4/mmm'
_cell_length_a       7.46309
_cell_length_b       7.46309
_cell_length_c       7.46309
_cell_angle_alpha    122.636
_cell_angle_beta     122.636
_cell_angle_gamma    85.4913

_symmetry_Int_Tables_number  139
_chemical_formula_structural  BaCuSi2O6
_chemical_formula_sum  Ba2Cu2Si4O2
_cell_volume  281.26528223684886
_cell_formula_units_Z  2
loop_
  _symmetry_equiv_pos_site_id
 _symmetry_equiv_pos_as_xyz
 1  'x, y, z'
loop_
 _atom_site_type_symbol
 _atom_site_label
 _atom_site_symmetry_multiplicity
 _atom_site_fract_x
 _atom_site_fract_y
 _atom_site_fract_z
 _atom_site_fract_occupancy
 Ba  Ba1  1  0.25000  0.75000  0.50000  1
 Ba  Ba2  1  0.75000  0.25000  0.50000  1
 Cu  Cu1  1  0.12584  0.12584  0.00000  1
 Cu  Cu2  1  0.87416  0.87416  0.00000  1
 O  O1  1  0.50000  0.23391  0.73391  1
 O  O2  1  0.93518  0.31957  0.00000  1
 O  O3  1  0.06482  0.06482  0.38439  1
 O  O4  1  0.23391  0.50000  0.73391  1
 O  O5  1  0.68043  0.06482  -0.00000  1
 O  O6  1  0.50000  0.76609  0.26609  1
 O  O7  1  0.76609  0.50000  0.26609  1
 O  O8  1  0.31957  0.31957  0.38439  1
 O  O9  1  0.31957  0.93518  0.00000  1
 O  O10  1  0.93518  0.93518  0.61561  1
 O  O11  1  0.06482  0.68043  -0.00000  1
 O  O12  1  0.68043  0.68043  0.61561  1
 Si  Si1  1  0.72659  0.72659  0.45317  1
 Si  Si2  1  0.27341  0.72659  0.00000  1
 Si  Si3  1  0.27341  0.27341  0.54683  1
 Si  Si4  1  0.72659  0.27341  -0.00000  1
