CIF file written using JARVIS-Tools package.
data_Ni6SnTe2
_symmetry_space_group_name_H-M  'I4mm'
_cell_length_a       9.98367
_cell_length_b       9.98367
_cell_length_c       9.98368
_cell_angle_alpha    158.046
_cell_angle_beta     158.046
_cell_angle_gamma    31.2444

_symmetry_Int_Tables_number  107
_chemical_formula_structural  Ni6SnTe2
_chemical_formula_sum  Ni6SnTe2
_cell_volume  138.99633518225457
_cell_formula_units_Z  1
loop_
  _symmetry_equiv_pos_site_id
 _symmetry_equiv_pos_as_xyz
 1  'x, y, z'
loop_
 _atom_site_type_symbol
 _atom_site_label
 _atom_site_symmetry_multiplicity
 _atom_site_fract_x
 _atom_site_fract_y
 _atom_site_fract_z
 _atom_site_fract_occupancy
 Ni  Ni1  1  0.50125  0.50125  -0.00000  1
 Ni  Ni2  1  0.90659  0.40659  0.50000  1
 Ni  Ni3  1  0.40659  0.90659  0.50000  1
 Ni  Ni4  1  0.09506  0.59506  0.50000  1
 Ni  Ni5  1  0.59506  0.09506  0.50000  1
 Ni  Ni6  1  0.80998  0.80998  -0.00000  1
 Sn  Sn1  1  0.00042  0.00042  -0.00000  1
 Te  Te1  1  0.31549  0.31549  0.00000  1
 Te  Te2  1  0.67915  0.67915  -0.00000  1
