CIF file written using JARVIS-Tools package.
data_V6O7F5
_symmetry_space_group_name_H-M  'Pm'
_cell_length_a       9.00468
_cell_length_b       4.65412
_cell_length_c       4.64626
_cell_angle_alpha    87.4373
_cell_angle_beta     90
_cell_angle_gamma    90

_symmetry_Int_Tables_number  6
_chemical_formula_structural  V6O7F5
_chemical_formula_sum  V6O7F5
_cell_volume  194.5250194958536
_cell_formula_units_Z  1
loop_
  _symmetry_equiv_pos_site_id
 _symmetry_equiv_pos_as_xyz
 1  'x, y, z'
loop_
 _atom_site_type_symbol
 _atom_site_label
 _atom_site_symmetry_multiplicity
 _atom_site_fract_x
 _atom_site_fract_y
 _atom_site_fract_z
 _atom_site_fract_occupancy
 F  F1  1  0.83603  0.19932  0.20276  1
 F  F2  1  0.00000  0.29877  0.71220  1
 F  F3  1  0.50000  0.80074  0.79635  1
 F  F4  1  0.16397  0.19932  0.20276  1
 F  F5  1  0.50000  0.20130  0.19106  1
 O  O1  1  0.66378  0.70903  0.29505  1
 O  O2  1  0.83442  0.80003  0.80311  1
 O  O3  1  0.16558  0.80003  0.80311  1
 O  O4  1  0.33622  0.70903  0.29505  1
 O  O5  1  0.00000  0.68401  0.31563  1
 O  O6  1  0.66497  0.29997  0.69849  1
 O  O7  1  0.33503  0.29997  0.69849  1
 V  V1  1  0.81985  0.53124  0.50883  1
 V  V2  1  0.18015  0.53124  0.50883  1
 V  V3  1  0.50000  0.49838  0.49618  1
 V  V4  1  0.00000  0.94582  0.00132  1
 V  V5  1  0.67495  0.99591  0.98540  1
 V  V6  1  0.32505  0.99591  0.98540  1
