CIF file written using JARVIS-Tools package.
data_LiFeBO4
_symmetry_space_group_name_H-M  'Pnma'
_cell_length_a       4.30191
_cell_length_b       5.715
_cell_length_c       9.84724
_cell_angle_alpha    90
_cell_angle_beta     90
_cell_angle_gamma    90

_symmetry_Int_Tables_number  62
_chemical_formula_structural  LiFeBO4
_chemical_formula_sum  Li4Fe4B4O6
_cell_volume  242.09844418089477
_cell_formula_units_Z  4
loop_
  _symmetry_equiv_pos_site_id
 _symmetry_equiv_pos_as_xyz
 1  'x, y, z'
loop_
 _atom_site_type_symbol
 _atom_site_label
 _atom_site_symmetry_multiplicity
 _atom_site_fract_x
 _atom_site_fract_y
 _atom_site_fract_z
 _atom_site_fract_occupancy
 B  B1  1  0.08634  0.75000  0.08487  1
 B  B2  1  0.41366  0.75000  0.58487  1
 B  B3  1  0.91366  0.25000  0.91513  1
 B  B4  1  0.58634  0.25000  0.41513  1
 Fe  Fe1  1  0.00000  0.50000  0.50000  1
 Fe  Fe2  1  0.00000  0.00000  0.50000  1
 Fe  Fe3  1  0.50000  0.50000  0.00000  1
 Fe  Fe4  1  0.50000  0.00000  0.00000  1
 Li  Li1  1  0.47867  0.25000  0.72502  1
 Li  Li2  1  0.02133  0.25000  0.22502  1
 Li  Li3  1  0.97867  0.75000  0.77498  1
 Li  Li4  1  0.52133  0.75000  0.27498  1
 O  O1  1  0.77919  0.46210  0.85722  1
 O  O2  1  0.74759  0.25000  0.55947  1
 O  O3  1  0.24664  0.25000  0.42066  1
 O  O4  1  0.27919  0.96210  0.64278  1
 O  O5  1  0.27919  0.53790  0.64278  1
 O  O6  1  0.77919  0.03790  0.85722  1
 O  O7  1  0.75336  0.75000  0.57934  1
 O  O8  1  0.72081  0.03790  0.35722  1
 O  O9  1  0.75241  0.25000  0.05947  1
 O  O10  1  0.74664  0.75000  0.07934  1
 O  O11  1  0.22081  0.53790  0.14278  1
 O  O12  1  0.22081  0.96210  0.14278  1
 O  O13  1  0.25336  0.25000  0.92066  1
 O  O14  1  0.72081  0.46210  0.35722  1
 O  O15  1  0.24759  0.75000  0.94053  1
 O  O16  1  0.25241  0.75000  0.44053  1
