CIF file written using JARVIS-Tools package.
data_DyFeCu
_symmetry_space_group_name_H-M  'Imma'
_cell_length_a       5.14902
_cell_length_b       5.14902
_cell_length_c       5.14902
_cell_angle_alpha    123.024
_cell_angle_beta     120.649
_cell_angle_gamma    86.8605

_symmetry_Int_Tables_number  74
_chemical_formula_structural  DyFeCu
_chemical_formula_sum  Dy2Fe2Cu2
_cell_volume  93.64283230060565
_cell_formula_units_Z  2
loop_
  _symmetry_equiv_pos_site_id
 _symmetry_equiv_pos_as_xyz
 1  'x, y, z'
loop_
 _atom_site_type_symbol
 _atom_site_label
 _atom_site_symmetry_multiplicity
 _atom_site_fract_x
 _atom_site_fract_y
 _atom_site_fract_z
 _atom_site_fract_occupancy
 Cu  Cu1  1  0.50000  0.50000  0.00000  1
 Cu  Cu2  1  -0.00000  0.50000  0.50000  1
 Dy  Dy1  1  0.36951  0.11951  0.25000  1
 Dy  Dy2  1  0.63049  0.88049  0.75000  1
 Fe  Fe1  1  -0.00000  0.50000  -0.00000  1
 Fe  Fe2  1  -0.00000  -0.00000  0.50000  1
