CIF file written using JARVIS-Tools package.
data_K4Na2FeH3F12
_symmetry_space_group_name_H-M  'P2'
_cell_length_a       5.89535
_cell_length_b       5.73049
_cell_length_c       8.33861
_cell_angle_alpha    86.1884
_cell_angle_beta     90
_cell_angle_gamma    90

_symmetry_Int_Tables_number  3
_chemical_formula_structural  K4Na2FeH3F12
_chemical_formula_sum  K4Na2FeH3F2
_cell_volume  281.0819596401745
_cell_formula_units_Z  1
loop_
  _symmetry_equiv_pos_site_id
 _symmetry_equiv_pos_as_xyz
 1  'x, y, z'
loop_
 _atom_site_type_symbol
 _atom_site_label
 _atom_site_symmetry_multiplicity
 _atom_site_fract_x
 _atom_site_fract_y
 _atom_site_fract_z
 _atom_site_fract_occupancy
 F  F1  1  0.77084  0.70103  0.98840  1
 F  F2  1  0.76287  0.76871  0.50404  1
 F  F3  1  0.99111  0.98830  0.72620  1
 F  F4  1  0.99111  0.01170  0.27380  1
 F  F5  1  0.21614  0.23041  0.49535  1
 F  F6  1  0.76287  0.23129  0.49596  1
 F  F7  1  0.28875  0.74389  0.03516  1
 F  F8  1  0.47599  0.53027  0.23660  1
 F  F9  1  0.47599  0.46973  0.76340  1
 F  F10  1  0.77084  0.29897  0.01160  1
 F  F11  1  0.21614  0.76959  0.50465  1
 F  F12  1  0.28875  0.25611  0.96484  1
 Fe  Fe1  1  0.99050  0.00000  0.50000  1
 H  H1  1  0.75353  0.50000  -0.00000  1
 H  H2  1  0.38947  0.36893  0.87472  1
 H  H3  1  0.38947  0.63107  0.12528  1
 K  K1  1  0.98567  0.48458  0.73204  1
 K  K2  1  0.49942  0.05256  0.24420  1
 K  K3  1  0.98567  0.51542  0.26796  1
 K  K4  1  0.49942  0.94744  0.75580  1
 Na  Na1  1  0.48737  0.50000  0.50000  1
 Na  Na2  1  0.00805  0.00000  0.00000  1
