CIF file written using JARVIS-Tools package.
data_LiFeSi2O6
_symmetry_space_group_name_H-M  'Cc'
_cell_length_a       5.11658
_cell_length_b       5.11659
_cell_length_c       10.3917
_cell_angle_alpha    76.7696
_cell_angle_beta     76.7695
_cell_angle_gamma    90.7552

_symmetry_Int_Tables_number  9
_chemical_formula_structural  LiFeSi2O6
_chemical_formula_sum  Li2Fe2Si4O2
_cell_volume  257.1804247140543
_cell_formula_units_Z  2
loop_
  _symmetry_equiv_pos_site_id
 _symmetry_equiv_pos_as_xyz
 1  'x, y, z'
loop_
 _atom_site_type_symbol
 _atom_site_label
 _atom_site_symmetry_multiplicity
 _atom_site_fract_x
 _atom_site_fract_y
 _atom_site_fract_z
 _atom_site_fract_occupancy
 Fe  Fe1  1  0.77132  0.03665  0.50672  1
 Fe  Fe2  1  0.03665  0.77132  0.00672  1
 Li  Li1  1  0.85989  0.63689  0.33488  1
 Li  Li2  1  0.63689  0.85989  0.83488  1
 O  O1  1  0.95194  0.65698  0.86014  1
 O  O2  1  0.65698  0.95194  0.36014  1
 O  O3  1  0.39516  0.69848  0.01512  1
 O  O4  1  0.77197  0.60356  0.16544  1
 O  O5  1  0.60356  0.77197  0.66544  1
 O  O6  1  0.71419  0.27246  0.77676  1
 O  O7  1  0.69848  0.39516  0.51512  1
 O  O8  1  0.35098  0.24619  0.20930  1
 O  O9  1  0.98545  0.13364  0.96781  1
 O  O10  1  0.13364  0.98545  0.46781  1
 O  O11  1  0.24619  0.35098  0.70930  1
 O  O12  1  0.27246  0.71419  0.27676  1
 Si  Si1  1  0.35737  -0.02041  0.33082  1
 Si  Si2  1  0.45650  0.56326  0.16296  1
 Si  Si3  1  0.56326  0.45650  0.66296  1
 Si  Si4  1  -0.02041  0.35737  0.83082  1
