CIF file written using JARVIS-Tools package.
data_BaSr4
_symmetry_space_group_name_H-M  'R-3m'
_cell_length_a       17.4806
_cell_length_b       17.4806
_cell_length_c       17.4806
_cell_angle_alpha    13.9094
_cell_angle_beta     13.9094
_cell_angle_gamma    13.9095

_symmetry_Int_Tables_number  166
_chemical_formula_structural  BaSr4
_chemical_formula_sum  BaSr4
_cell_volume  268.6281949426528
_cell_formula_units_Z  1
loop_
  _symmetry_equiv_pos_site_id
 _symmetry_equiv_pos_as_xyz
 1  'x, y, z'
loop_
 _atom_site_type_symbol
 _atom_site_label
 _atom_site_symmetry_multiplicity
 _atom_site_fract_x
 _atom_site_fract_y
 _atom_site_fract_z
 _atom_site_fract_occupancy
 Ba  Ba1  1  0.00000  0.00000  0.00000  1
 Sr  Sr1  1  0.59852  0.59852  0.59852  1
 Sr  Sr2  1  0.19952  0.19952  0.19952  1
 Sr  Sr3  1  0.80048  0.80048  0.80048  1
 Sr  Sr4  1  0.40148  0.40148  0.40148  1
