CIF file written using JARVIS-Tools package.
data_CaBeBr2
_symmetry_space_group_name_H-M  'P4mm'
_cell_length_a       3.51132
_cell_length_b       3.51132
_cell_length_c       7.89254
_cell_angle_alpha    90
_cell_angle_beta     90
_cell_angle_gamma    90

_symmetry_Int_Tables_number  99
_chemical_formula_structural  CaBeBr2
_chemical_formula_sum  CaBeBr2
_cell_volume  97.30971236625524
_cell_formula_units_Z  1
loop_
  _symmetry_equiv_pos_site_id
 _symmetry_equiv_pos_as_xyz
 1  'x, y, z'
loop_
 _atom_site_type_symbol
 _atom_site_label
 _atom_site_symmetry_multiplicity
 _atom_site_fract_x
 _atom_site_fract_y
 _atom_site_fract_z
 _atom_site_fract_occupancy
 Be  Be1  1  0.00000  0.00000  0.90627  1
 Br  Br1  1  0.00000  0.00000  0.42474  1
 Br  Br2  1  0.50000  0.50000  0.04007  1
 Ca  Ca1  1  0.50000  0.50000  0.63892  1
