CIF file written using JARVIS-Tools package.
data_Li2VFeP2O8
_symmetry_space_group_name_H-M  'P1'
_cell_length_a       4.68786
_cell_length_b       10.1914
_cell_length_c       5.96394
_cell_angle_alpha    90.0168
_cell_angle_beta     89.921
_cell_angle_gamma    90.0598

_symmetry_Int_Tables_number  1
_chemical_formula_structural  Li2VFeP2O8
_chemical_formula_sum  Li4V2Fe2P4O6
_cell_volume  284.9318330085989
_cell_formula_units_Z  2
loop_
  _symmetry_equiv_pos_site_id
 _symmetry_equiv_pos_as_xyz
 1  'x, y, z'
loop_
 _atom_site_type_symbol
 _atom_site_label
 _atom_site_symmetry_multiplicity
 _atom_site_fract_x
 _atom_site_fract_y
 _atom_site_fract_z
 _atom_site_fract_occupancy
 Fe  Fe1  1  0.97962  0.27238  0.24956  1
 Fe  Fe2  1  0.02840  0.72071  0.75018  1
 Li  Li1  1  0.00211  0.00218  -0.00104  1
 Li  Li2  1  0.00183  0.00242  0.50096  1
 Li  Li3  1  0.49997  0.49590  0.00177  1
 Li  Li4  1  0.49986  0.49561  0.49802  1
 O  O1  1  0.71284  0.05166  0.74893  1
 O  O2  1  0.22073  0.66090  0.04563  1
 O  O3  1  0.74641  0.09986  0.24948  1
 O  O4  1  0.25782  0.90984  0.75069  1
 O  O5  1  0.24361  0.40413  0.75002  1
 O  O6  1  0.75143  0.59313  0.24995  1
 O  O7  1  0.29529  0.95591  0.25115  1
 O  O8  1  0.78968  0.54484  0.74980  1
 O  O9  1  0.27819  0.16770  0.04260  1
 O  O10  1  0.27812  0.16931  0.45630  1
 O  O11  1  0.77835  0.33205  0.54262  1
 O  O12  1  0.72155  0.84057  0.95814  1
 O  O13  1  0.19989  0.44617  0.25019  1
 O  O14  1  0.77815  0.33230  0.95773  1
 O  O15  1  0.72083  0.83957  0.54240  1
 O  O16  1  0.22043  0.66098  0.45428  1
 P  P1  1  0.41884  0.09747  0.25009  1
 P  P2  1  0.58448  0.91035  0.75007  1
 P  P3  1  0.91635  0.40476  0.74995  1
 P  P4  1  0.07821  0.58762  0.25001  1
 V  V1  1  0.48287  0.22645  0.75038  1
 V  V2  1  0.51418  0.77524  0.25014  1
