CIF file written using JARVIS-Tools package.
data_LiFeP2O7
_symmetry_space_group_name_H-M  'P2_1'
_cell_length_a       8.34888
_cell_length_b       4.71502
_cell_length_c       7.12069
_cell_angle_alpha    62.7335
_cell_angle_beta     90
_cell_angle_gamma    90

_symmetry_Int_Tables_number  4
_chemical_formula_structural  LiFeP2O7
_chemical_formula_sum  Li2Fe2P4O4
_cell_volume  249.16105932605512
_cell_formula_units_Z  2
loop_
  _symmetry_equiv_pos_site_id
 _symmetry_equiv_pos_as_xyz
 1  'x, y, z'
loop_
 _atom_site_type_symbol
 _atom_site_label
 _atom_site_symmetry_multiplicity
 _atom_site_fract_x
 _atom_site_fract_y
 _atom_site_fract_z
 _atom_site_fract_occupancy
 Fe  Fe1  1  0.15787  0.71819  0.72782  1
 Fe  Fe2  1  0.65787  0.28181  0.27218  1
 Li  Li1  1  0.51553  0.68042  0.78752  1
 Li  Li2  1  0.01553  0.31958  0.21248  1
 O  O1  1  0.67368  0.72978  0.02275  1
 O  O2  1  0.33299  0.89032  0.86154  1
 O  O3  1  0.83299  0.10968  0.13846  1
 O  O4  1  0.67437  0.79537  0.51971  1
 O  O5  1  0.33105  0.56102  0.61269  1
 O  O6  1  0.97301  0.68824  0.58507  1
 O  O7  1  0.77107  0.23903  0.75767  1
 O  O8  1  0.27107  0.76097  0.24233  1
 O  O9  1  0.83105  0.43898  0.38731  1
 O  O10  1  0.55626  0.22643  0.02186  1
 O  O11  1  0.17437  0.20463  0.48029  1
 O  O12  1  0.47301  0.31176  0.41493  1
 O  O13  1  0.05626  0.77357  0.97814  1
 O  O14  1  0.17368  0.27022  -0.02275  1
 P  P1  1  0.31247  0.43677  0.44859  1
 P  P2  1  0.70890  0.06354  0.99418  1
 P  P3  1  0.20890  0.93646  0.00582  1
 P  P4  1  0.81247  0.56323  0.55141  1
