CIF file written using JARVIS-Tools package.
data_WO2F2
_symmetry_space_group_name_H-M  'Pmc2_1'
_cell_length_a       3.89018
_cell_length_b       6.4898
_cell_length_c       7.7092
_cell_angle_alpha    90
_cell_angle_beta     90
_cell_angle_gamma    90

_symmetry_Int_Tables_number  26
_chemical_formula_structural  WO2F2
_chemical_formula_sum  W2O4F4
_cell_volume  194.63041882050982
_cell_formula_units_Z  2
loop_
  _symmetry_equiv_pos_site_id
 _symmetry_equiv_pos_as_xyz
 1  'x, y, z'
loop_
 _atom_site_type_symbol
 _atom_site_label
 _atom_site_symmetry_multiplicity
 _atom_site_fract_x
 _atom_site_fract_y
 _atom_site_fract_z
 _atom_site_fract_occupancy
 F  F1  1  0.01443  0.28464  0.95411  1
 F  F2  1  0.01443  0.71536  0.95411  1
 F  F3  1  0.98557  0.28464  0.45411  1
 F  F4  1  0.98557  0.71536  0.45411  1
 O  O1  1  0.49302  0.00000  0.96808  1
 O  O2  1  0.00422  0.00000  0.71636  1
 O  O3  1  0.50698  0.00000  0.46808  1
 O  O4  1  0.99578  0.00000  0.21636  1
 W  W1  1  0.95077  0.00000  0.98445  1
 W  W2  1  0.04923  0.00000  0.48445  1
