CIF file written using JARVIS-Tools package.
data_AgPt4
_symmetry_space_group_name_H-M  'R-3m'
_cell_length_a       11.8743
_cell_length_b       11.8743
_cell_length_c       11.8743
_cell_angle_alpha    13.5628
_cell_angle_beta     13.5628
_cell_angle_gamma    13.5628

_symmetry_Int_Tables_number  166
_chemical_formula_structural  AgPt4
_chemical_formula_sum  AgPt4
_cell_volume  80.11260969246672
_cell_formula_units_Z  1
loop_
  _symmetry_equiv_pos_site_id
 _symmetry_equiv_pos_as_xyz
 1  'x, y, z'
loop_
 _atom_site_type_symbol
 _atom_site_label
 _atom_site_symmetry_multiplicity
 _atom_site_fract_x
 _atom_site_fract_y
 _atom_site_fract_z
 _atom_site_fract_occupancy
 Ag  Ag1  1  0.00000  0.00000  0.00000  1
 Pt  Pt1  1  0.59888  0.59888  0.59888  1
 Pt  Pt2  1  0.19946  0.19946  0.19946  1
 Pt  Pt3  1  0.80054  0.80054  0.80054  1
 Pt  Pt4  1  0.40112  0.40112  0.40112  1
