CIF file written using JARVIS-Tools package.
data_BeCdBr
_symmetry_space_group_name_H-M  'Pm'
_cell_length_a       3.38129
_cell_length_b       7.95562
_cell_length_c       3.37697
_cell_angle_alpha    90
_cell_angle_beta     90
_cell_angle_gamma    53.6412

_symmetry_Int_Tables_number  6
_chemical_formula_structural  BeCdBr
_chemical_formula_sum  BeCdBr
_cell_volume  73.15632566349129
_cell_formula_units_Z  1
loop_
  _symmetry_equiv_pos_site_id
 _symmetry_equiv_pos_as_xyz
 1  'x, y, z'
loop_
 _atom_site_type_symbol
 _atom_site_label
 _atom_site_symmetry_multiplicity
 _atom_site_fract_x
 _atom_site_fract_y
 _atom_site_fract_z
 _atom_site_fract_occupancy
 Be  Be1  1  0.11444  0.08414  0.00000  1
 Br  Br1  1  -0.07021  -0.14527  0.00000  1
 Cd  Cd1  1  0.20510  0.37929  0.00000  1
