CIF file written using JARVIS-Tools package.
data_Na3CoO3
_symmetry_space_group_name_H-M  'Cmcm'
_cell_length_a       4.72895
_cell_length_b       9.6381
_cell_length_c       8.4074
_cell_angle_alpha    90
_cell_angle_beta     90
_cell_angle_gamma    90

_symmetry_Int_Tables_number  63
_chemical_formula_structural  Na3CoO3
_chemical_formula_sum  Na2Co4O2
_cell_volume  383.1933572640752
_cell_formula_units_Z  4
loop_
  _symmetry_equiv_pos_site_id
 _symmetry_equiv_pos_as_xyz
 1  'x, y, z'
loop_
 _atom_site_type_symbol
 _atom_site_label
 _atom_site_symmetry_multiplicity
 _atom_site_fract_x
 _atom_site_fract_y
 _atom_site_fract_z
 _atom_site_fract_occupancy
 Co  Co1  1  0.25000  0.18167  -0.00000  1
 Co  Co2  1  0.25000  0.68167  0.50000  1
 Co  Co3  1  0.75000  0.81833  0.00000  1
 Co  Co4  1  0.75000  0.31833  0.50000  1
 Na  Na1  1  0.75000  0.11884  0.22720  1
 Na  Na2  1  0.75000  0.61884  0.72720  1
 Na  Na3  1  0.25000  0.88116  0.22720  1
 Na  Na4  1  0.25000  0.38116  0.72720  1
 Na  Na5  1  0.25000  0.60559  0.00000  1
 Na  Na6  1  0.75000  0.61884  0.27280  1
 Na  Na7  1  0.25000  0.88117  0.77280  1
 Na  Na8  1  0.25000  0.38116  0.27280  1
 Na  Na9  1  0.75000  0.89441  0.50000  1
 Na  Na10  1  0.75000  0.39441  -0.00000  1
 Na  Na11  1  0.25000  0.10559  0.50000  1
 Na  Na12  1  0.75000  0.11884  0.77280  1
 O  O1  1  0.25000  0.12823  0.19725  1
 O  O2  1  0.25000  0.62824  0.69725  1
 O  O3  1  0.25000  0.12823  0.80275  1
 O  O4  1  0.25000  0.62824  0.30275  1
 O  O5  1  0.75000  0.87176  0.80275  1
 O  O6  1  0.75000  0.63337  -0.00000  1
 O  O7  1  0.75000  0.13337  0.50000  1
 O  O8  1  0.25000  0.86663  0.50000  1
 O  O9  1  0.25000  0.36663  0.00000  1
 O  O10  1  0.75000  0.37177  0.69725  1
 O  O11  1  0.75000  0.37177  0.30275  1
 O  O12  1  0.75000  0.87176  0.19725  1
