CIF file written using JARVIS-Tools package.
data_BeCN2
_symmetry_space_group_name_H-M  'R-3m'
_cell_length_a       4.52034
_cell_length_b       4.52034
_cell_length_c       4.52034
_cell_angle_alpha    31.9697
_cell_angle_beta     31.9697
_cell_angle_gamma    31.9698

_symmetry_Int_Tables_number  166
_chemical_formula_structural  BeCN2
_chemical_formula_sum  BeCN2
_cell_volume  23.005510139504885
_cell_formula_units_Z  1
loop_
  _symmetry_equiv_pos_site_id
 _symmetry_equiv_pos_as_xyz
 1  'x, y, z'
loop_
 _atom_site_type_symbol
 _atom_site_label
 _atom_site_symmetry_multiplicity
 _atom_site_fract_x
 _atom_site_fract_y
 _atom_site_fract_z
 _atom_site_fract_occupancy
 Be  Be1  1  0.00000  0.00000  0.00000  1
 C  C1  1  0.50000  0.50000  0.50000  1
 N  N1  1  0.76025  0.76025  0.76025  1
 N  N2  1  0.23975  0.23975  0.23975  1
