CIF file written using JARVIS-Tools package.
data_Li2Co3NiO8
_symmetry_space_group_name_H-M  'R-3m'
_cell_length_a       5.67481
_cell_length_b       5.67481
_cell_length_c       5.67481
_cell_angle_alpha    59.7776
_cell_angle_beta     59.7776
_cell_angle_gamma    59.7777

_symmetry_Int_Tables_number  166
_chemical_formula_structural  Li2Co3NiO8
_chemical_formula_sum  Li2Co3NiO8
_cell_volume  128.570368205338
_cell_formula_units_Z  1
loop_
  _symmetry_equiv_pos_site_id
 _symmetry_equiv_pos_as_xyz
 1  'x, y, z'
loop_
 _atom_site_type_symbol
 _atom_site_label
 _atom_site_symmetry_multiplicity
 _atom_site_fract_x
 _atom_site_fract_y
 _atom_site_fract_z
 _atom_site_fract_occupancy
 Co  Co1  1  0.50000  -0.00000  0.50000  1
 Co  Co2  1  0.00000  0.50000  0.50000  1
 Co  Co3  1  0.50000  0.50000  0.00000  1
 Li  Li1  1  0.87338  0.87338  0.87338  1
 Li  Li2  1  0.12662  0.12662  0.12662  1
 Ni  Ni1  1  0.50000  0.50000  0.50000  1
 O  O1  1  0.29042  0.73699  0.73699  1
 O  O2  1  0.73699  0.29042  0.73699  1
 O  O3  1  0.26414  0.26414  0.26414  1
 O  O4  1  0.73699  0.73699  0.29042  1
 O  O5  1  0.26301  0.26301  0.70958  1
 O  O6  1  0.73586  0.73586  0.73586  1
 O  O7  1  0.26301  0.70958  0.26301  1
 O  O8  1  0.70958  0.26301  0.26301  1
