CIF file written using JARVIS-Tools package.
data_Ge2SeS
_symmetry_space_group_name_H-M  'Pmc2_1'
_cell_length_a       3.79158
_cell_length_b       4.45709
_cell_length_c       10.9104
_cell_angle_alpha    90
_cell_angle_beta     90
_cell_angle_gamma    90

_symmetry_Int_Tables_number  26
_chemical_formula_structural  Ge2SeS
_chemical_formula_sum  Ge4Se2S2
_cell_volume  184.37947587924083
_cell_formula_units_Z  2
loop_
  _symmetry_equiv_pos_site_id
 _symmetry_equiv_pos_as_xyz
 1  'x, y, z'
loop_
 _atom_site_type_symbol
 _atom_site_label
 _atom_site_symmetry_multiplicity
 _atom_site_fract_x
 _atom_site_fract_y
 _atom_site_fract_z
 _atom_site_fract_occupancy
 Ge  Ge1  1  0.00000  0.14254  0.62779  1
 Ge  Ge2  1  0.00000  0.85746  0.12779  1
 Ge  Ge3  1  0.50000  0.39660  0.37863  1
 Ge  Ge4  1  0.50000  0.60340  0.87863  1
 S  S1  1  0.00000  0.24623  0.84830  1
 S  S2  1  0.00000  0.75377  0.34830  1
 Se  Se1  1  0.50000  0.25122  0.14527  1
 Se  Se2  1  0.50000  0.74878  0.64527  1
