CIF file written using JARVIS-Tools package.
data_TiGeIr
_symmetry_space_group_name_H-M  'Ima2'
_cell_length_a       7.5175
_cell_length_b       7.5175
_cell_length_c       7.5175
_cell_angle_alpha    128.102
_cell_angle_beta     120.525
_cell_angle_gamma    82.8203

_symmetry_Int_Tables_number  46
_chemical_formula_structural  TiGeIr
_chemical_formula_sum  Ti6Ge6Ir6
_cell_volume  276.6245774414142
_cell_formula_units_Z  6
loop_
  _symmetry_equiv_pos_site_id
 _symmetry_equiv_pos_as_xyz
 1  'x, y, z'
loop_
 _atom_site_type_symbol
 _atom_site_label
 _atom_site_symmetry_multiplicity
 _atom_site_fract_x
 _atom_site_fract_y
 _atom_site_fract_z
 _atom_site_fract_occupancy
 Ge  Ge1  1  0.33554  0.33417  0.00544  1
 Ge  Ge2  1  0.17127  0.66989  0.50544  1
 Ge  Ge3  1  0.79899  0.04901  0.75002  1
 Ge  Ge4  1  0.20101  0.95103  0.25002  1
 Ge  Ge5  1  0.82873  0.33417  0.49863  1
 Ge  Ge6  1  0.66446  0.66989  -0.00137  1
 Ir  Ir1  1  0.17416  0.99515  0.92273  1
 Ir  Ir2  1  0.82584  0.74857  0.82099  1
 Ir  Ir3  1  0.57242  0.99515  0.32099  1
 Ir  Ir4  1  0.42758  0.74857  0.42273  1
 Ir  Ir5  1  0.50000  0.25406  0.75406  1
 Ir  Ir6  1  0.00000  0.25406  0.25406  1
 Ti  Ti1  1  0.75027  0.58085  0.33058  1
 Ti  Ti2  1  0.24973  0.58031  0.83058  1
 Ti  Ti3  1  0.98356  0.47773  0.99417  1
 Ti  Ti4  1  0.01644  0.01061  0.49417  1
 Ti  Ti5  1  0.55606  0.00944  0.95338  1
 Ti  Ti6  1  0.44394  0.39732  0.45338  1
