CIF file written using JARVIS-Tools package.
data_Be2C
_symmetry_space_group_name_H-M  'Fm-3m'
_cell_length_a       3.05605
_cell_length_b       3.05613
_cell_length_c       3.05588
_cell_angle_alpha    60.0018
_cell_angle_beta     120.001
_cell_angle_gamma    89.9984

_symmetry_Int_Tables_number  225
_chemical_formula_structural  Be2C
_chemical_formula_sum  Be2C
_cell_volume  20.181554011754688
_cell_formula_units_Z  1
loop_
  _symmetry_equiv_pos_site_id
 _symmetry_equiv_pos_as_xyz
 1  'x, y, z'
loop_
 _atom_site_type_symbol
 _atom_site_label
 _atom_site_symmetry_multiplicity
 _atom_site_fract_x
 _atom_site_fract_y
 _atom_site_fract_z
 _atom_site_fract_occupancy
 Be  Be1  1  0.47966  0.11089  0.60233  1
 Be  Be2  1  -0.02037  0.61092  0.60228  1
 C  C1  1  0.22966  0.86099  0.10226  1
