CIF file written using JARVIS-Tools package.
data_Li2Mn2OF6
_symmetry_space_group_name_H-M  'P-1'
_cell_length_a       7.2838
_cell_length_b       5.57184
_cell_length_c       6.89812
_cell_angle_alpha    79.6532
_cell_angle_beta     116.736
_cell_angle_gamma    107.952

_symmetry_Int_Tables_number  2
_chemical_formula_structural  Li2Mn2OF6
_chemical_formula_sum  Li4Mn4O2F2
_cell_volume  237.5749311389954
_cell_formula_units_Z  2
loop_
  _symmetry_equiv_pos_site_id
 _symmetry_equiv_pos_as_xyz
 1  'x, y, z'
loop_
 _atom_site_type_symbol
 _atom_site_label
 _atom_site_symmetry_multiplicity
 _atom_site_fract_x
 _atom_site_fract_y
 _atom_site_fract_z
 _atom_site_fract_occupancy
 F  F1  1  0.90570  0.83855  0.83084  1
 F  F2  1  0.24067  0.57936  0.89603  1
 F  F3  1  0.75933  0.42064  0.10397  1
 F  F4  1  0.09430  0.16145  0.16916  1
 F  F5  1  0.81208  0.31208  0.71475  1
 F  F6  1  0.39304  0.01934  0.62222  1
 F  F7  1  0.08087  0.28274  0.53875  1
 F  F8  1  0.91913  0.71726  0.46125  1
 F  F9  1  0.66506  0.92571  0.02653  1
 F  F10  1  0.18792  0.68792  0.28525  1
 F  F11  1  0.60696  0.98066  0.37778  1
 F  F12  1  0.33494  0.07429  0.97347  1
 Li  Li1  1  0.20786  0.69254  0.60521  1
 Li  Li2  1  0.08184  0.20895  0.86774  1
 Li  Li3  1  0.91816  0.79105  0.13226  1
 Li  Li4  1  0.79214  0.30746  0.39479  1
 Mn  Mn1  1  0.40508  0.77782  0.13663  1
 Mn  Mn2  1  0.71888  0.65933  0.58307  1
 Mn  Mn3  1  0.28112  0.34067  0.41693  1
 Mn  Mn4  1  0.59492  0.22218  0.86337  1
 O  O1  1  0.50061  0.49879  0.68281  1
 O  O2  1  0.49939  0.50121  0.31719  1
