CIF file written using JARVIS-Tools package.
data_Li3Cr2CoO6
_symmetry_space_group_name_H-M  'C2/m'
_cell_length_a       6.46813
_cell_length_b       6.46813
_cell_length_c       5.78407
_cell_angle_alpha    76.6488
_cell_angle_beta     76.6488
_cell_angle_gamma    25.9609

_symmetry_Int_Tables_number  12
_chemical_formula_structural  Li3Cr2CoO6
_chemical_formula_sum  Li3Cr2CoO6
_cell_volume  102.91403246046299
_cell_formula_units_Z  1
loop_
  _symmetry_equiv_pos_site_id
 _symmetry_equiv_pos_as_xyz
 1  'x, y, z'
loop_
 _atom_site_type_symbol
 _atom_site_label
 _atom_site_symmetry_multiplicity
 _atom_site_fract_x
 _atom_site_fract_y
 _atom_site_fract_z
 _atom_site_fract_occupancy
 Co  Co1  1  0.50000  0.50000  0.00000  1
 Cr  Cr1  1  0.16500  0.16500  0.67318  1
 Cr  Cr2  1  0.83500  0.83500  0.32682  1
 Li  Li1  1  0.16261  0.16261  0.16848  1
 Li  Li2  1  0.50000  0.50000  0.50000  1
 Li  Li3  1  0.83739  0.83739  0.83152  1
 O  O1  1  0.65971  0.65971  0.90887  1
 O  O2  1  0.99590  0.99590  0.22973  1
 O  O3  1  0.32911  0.32911  0.56809  1
 O  O4  1  0.00410  0.00410  0.77027  1
 O  O5  1  0.34029  0.34029  0.09113  1
 O  O6  1  0.67089  0.67089  0.43191  1
