CIF file written using JARVIS-Tools package.
data_CrOF
_symmetry_space_group_name_H-M  'P2_1/c'
_cell_length_a       4.50806
_cell_length_b       5.53198
_cell_length_c       5.06484
_cell_angle_alpha    91.3408
_cell_angle_beta     90.0001
_cell_angle_gamma    90.0001

_symmetry_Int_Tables_number  14
_chemical_formula_structural  CrOF
_chemical_formula_sum  Cr4O4F4
_cell_volume  126.2748772702505
_cell_formula_units_Z  4
loop_
  _symmetry_equiv_pos_site_id
 _symmetry_equiv_pos_as_xyz
 1  'x, y, z'
loop_
 _atom_site_type_symbol
 _atom_site_label
 _atom_site_symmetry_multiplicity
 _atom_site_fract_x
 _atom_site_fract_y
 _atom_site_fract_z
 _atom_site_fract_occupancy
 Cr  Cr1  1  0.97960  0.14952  0.27376  1
 Cr  Cr2  1  0.47960  0.35048  0.72624  1
 Cr  Cr3  1  0.52041  0.64951  0.27376  1
 Cr  Cr4  1  0.02041  0.85048  0.72624  1
 F  F1  1  0.24362  0.88733  0.08004  1
 F  F2  1  0.25638  0.38733  0.08004  1
 F  F3  1  0.74362  0.61267  0.91996  1
 F  F4  1  0.75638  0.11267  0.91996  1
 O  O1  1  0.77138  0.88807  0.42680  1
 O  O2  1  0.72862  0.38807  0.42680  1
 O  O3  1  0.27138  0.61193  0.57320  1
 O  O4  1  0.22862  0.11193  0.57320  1
