CIF file written using JARVIS-Tools package.
data_Li5Co3O8
_symmetry_space_group_name_H-M  'P2/m'
_cell_length_a       2.82808
_cell_length_b       5.7184
_cell_length_c       8.00212
_cell_angle_alpha    90.4593
_cell_angle_beta     90.0035
_cell_angle_gamma    89.9768

_symmetry_Int_Tables_number  10
_chemical_formula_structural  Li5Co3O8
_chemical_formula_sum  Li5Co3O8
_cell_volume  129.40679586928056
_cell_formula_units_Z  1
loop_
  _symmetry_equiv_pos_site_id
 _symmetry_equiv_pos_as_xyz
 1  'x, y, z'
loop_
 _atom_site_type_symbol
 _atom_site_label
 _atom_site_symmetry_multiplicity
 _atom_site_fract_x
 _atom_site_fract_y
 _atom_site_fract_z
 _atom_site_fract_occupancy
 Co  Co1  1  -0.00009  0.75506  0.75646  1
 Co  Co2  1  0.00009  0.24494  0.24354  1
 Co  Co3  1  0.50000  0.50000  0.50000  1
 Li  Li1  1  0.99970  0.24029  0.76776  1
 Li  Li2  1  0.50000  0.50000  0.00000  1
 Li  Li3  1  0.50000  0.00000  0.50000  1
 Li  Li4  1  0.00030  0.75971  0.23224  1
 Li  Li5  1  0.50000  0.00000  -0.00000  1
 O  O1  1  0.50007  0.52316  0.73776  1
 O  O2  1  0.00000  0.74788  0.98191  1
 O  O3  1  0.00013  0.27493  0.48891  1
 O  O4  1  0.50022  0.02486  0.25386  1
 O  O5  1  0.49978  0.97514  0.74614  1
 O  O6  1  -0.00000  0.25212  0.01809  1
 O  O7  1  -0.00013  0.72507  0.51109  1
 O  O8  1  0.49993  0.47684  0.26224  1
