CIF file written using JARVIS-Tools package.
data_Na2N2O3
_symmetry_space_group_name_H-M  'C2'
_cell_length_a       6.32216
_cell_length_b       6.32215
_cell_length_c       11.7399
_cell_angle_alpha    75.0467
_cell_angle_beta     75.0468
_cell_angle_gamma    39.5557

_symmetry_Int_Tables_number  5
_chemical_formula_structural  Na2N2O3
_chemical_formula_sum  Na6N6O9
_cell_volume  287.37041060926384
_cell_formula_units_Z  3
loop_
  _symmetry_equiv_pos_site_id
 _symmetry_equiv_pos_as_xyz
 1  'x, y, z'
loop_
 _atom_site_type_symbol
 _atom_site_label
 _atom_site_symmetry_multiplicity
 _atom_site_fract_x
 _atom_site_fract_y
 _atom_site_fract_z
 _atom_site_fract_occupancy
 N  N1  1  0.36543  0.96524  0.66070  1
 N  N2  1  0.03883  0.58073  0.81493  1
 N  N3  1  0.73745  0.26255  0.00000  1
 N  N4  1  0.41927  0.96117  0.18507  1
 N  N5  1  0.03476  0.63457  0.33930  1
 N  N6  1  0.74020  0.25980  0.50000  1
 Na  Na1  1  0.93415  0.72374  0.59743  1
 Na  Na2  1  0.70140  0.34207  0.21832  1
 Na  Na3  1  0.95242  0.73090  0.07257  1
 Na  Na4  1  0.26910  0.04758  0.92743  1
 Na  Na5  1  0.65793  0.29860  0.78168  1
 Na  Na6  1  0.27626  0.06585  0.40257  1
 O  O1  1  0.19194  0.19810  0.11550  1
 O  O2  1  0.52350  0.35844  0.58837  1
 O  O3  1  0.28011  0.88810  0.75836  1
 O  O4  1  0.12341  0.22565  0.60121  1
 O  O5  1  0.44094  0.55906  0.00000  1
 O  O6  1  0.80190  0.80806  0.88450  1
 O  O7  1  0.11190  0.71989  0.24164  1
 O  O8  1  0.77435  0.87659  0.39879  1
 O  O9  1  0.64156  0.47650  0.41163  1
