CIF file written using JARVIS-Tools package.
data_LiMn2P2O8
_symmetry_space_group_name_H-M  'C2'
_cell_length_a       4.88961
_cell_length_b       4.88961
_cell_length_c       7.08121
_cell_angle_alpha    91.8105
_cell_angle_beta     88.1894
_cell_angle_gamma    93.2785

_symmetry_Int_Tables_number  5
_chemical_formula_structural  LiMn2P2O8
_chemical_formula_sum  LiMn2P2O8
_cell_volume  168.8627126474402
_cell_formula_units_Z  1
loop_
  _symmetry_equiv_pos_site_id
 _symmetry_equiv_pos_as_xyz
 1  'x, y, z'
loop_
 _atom_site_type_symbol
 _atom_site_label
 _atom_site_symmetry_multiplicity
 _atom_site_fract_x
 _atom_site_fract_y
 _atom_site_fract_z
 _atom_site_fract_occupancy
 Li  Li1  1  0.49374  0.49374  0.00000  1
 Mn  Mn1  1  0.96138  0.96138  -0.00000  1
 Mn  Mn2  1  0.54984  0.54984  0.50000  1
 O  O1  1  0.56269  0.71076  0.23938  1
 O  O2  1  0.63852  0.15263  0.07657  1
 O  O3  1  0.14722  0.57064  0.56137  1
 O  O4  1  0.17169  0.04480  0.22255  1
 O  O5  1  0.04479  0.17169  0.77745  1
 O  O6  1  0.57064  0.14722  0.43862  1
 O  O7  1  0.15264  0.63852  0.92344  1
 O  O8  1  0.71076  0.56270  0.76062  1
 P  P1  1  0.47983  0.01624  0.25047  1
 P  P2  1  0.01624  0.47983  0.74953  1
