CIF file written using JARVIS-Tools package.
data_CaBeRh
_symmetry_space_group_name_H-M  'Amm2'
_cell_length_a       3.96699
_cell_length_b       5.30827
_cell_length_c       2.89449
_cell_angle_alpha    90
_cell_angle_beta     90
_cell_angle_gamma    111.93

_symmetry_Int_Tables_number  38
_chemical_formula_structural  CaBeRh
_chemical_formula_sum  CaBeRh
_cell_volume  56.54145421400473
_cell_formula_units_Z  1
loop_
  _symmetry_equiv_pos_site_id
 _symmetry_equiv_pos_as_xyz
 1  'x, y, z'
loop_
 _atom_site_type_symbol
 _atom_site_label
 _atom_site_symmetry_multiplicity
 _atom_site_fract_x
 _atom_site_fract_y
 _atom_site_fract_z
 _atom_site_fract_occupancy
 Be  Be1  1  0.36944  0.00030  0.00000  1
 Ca  Ca1  1  0.08175  0.42493  0.00000  1
 Rh  Rh1  1  -0.21063  -0.15991  0.00000  1
