CIF file written using JARVIS-Tools package.
data_CaBeSb
_symmetry_space_group_name_H-M  'Amm2'
_cell_length_a       6.00526
_cell_length_b       4.10779
_cell_length_c       3.54128
_cell_angle_alpha    90
_cell_angle_beta     90
_cell_angle_gamma    109.993

_symmetry_Int_Tables_number  38
_chemical_formula_structural  CaBeSb
_chemical_formula_sum  CaBeSb
_cell_volume  82.09254635130347
_cell_formula_units_Z  1
loop_
  _symmetry_equiv_pos_site_id
 _symmetry_equiv_pos_as_xyz
 1  'x, y, z'
loop_
 _atom_site_type_symbol
 _atom_site_label
 _atom_site_symmetry_multiplicity
 _atom_site_fract_x
 _atom_site_fract_y
 _atom_site_fract_z
 _atom_site_fract_occupancy
 Be  Be1  1  -0.17502  -0.21760  0.00000  1
 Ca  Ca1  1  0.45617  0.09798  0.00000  1
 Sb  Sb1  1  0.03600  0.38788  0.00000  1
