CIF file written using JARVIS-Tools package.
data_Tl6WO12
_symmetry_space_group_name_H-M  'R-3'
_cell_length_a       6.52394
_cell_length_b       6.52394
_cell_length_c       6.52394
_cell_angle_alpha    98.4459
_cell_angle_beta     98.4459
_cell_angle_gamma    98.4458

_symmetry_Int_Tables_number  148
_chemical_formula_structural  Tl6WO12
_chemical_formula_sum  Tl6WO2
_cell_volume  267.6244489625137
_cell_formula_units_Z  1
loop_
  _symmetry_equiv_pos_site_id
 _symmetry_equiv_pos_as_xyz
 1  'x, y, z'
loop_
 _atom_site_type_symbol
 _atom_site_label
 _atom_site_symmetry_multiplicity
 _atom_site_fract_x
 _atom_site_fract_y
 _atom_site_fract_z
 _atom_site_fract_occupancy
 O  O1  1  0.96417  0.08859  0.28896  1
 O  O2  1  0.28896  0.96417  0.08859  1
 O  O3  1  0.91141  0.71104  0.03583  1
 O  O4  1  0.08859  0.28896  0.96417  1
 O  O5  1  0.59957  0.41846  0.17493  1
 O  O6  1  0.58154  0.82507  0.40043  1
 O  O7  1  0.17493  0.59957  0.41846  1
 O  O8  1  0.82507  0.40043  0.58154  1
 O  O9  1  0.03583  0.91141  0.71104  1
 O  O10  1  0.71104  0.03583  0.91141  1
 O  O11  1  0.41846  0.17493  0.59957  1
 O  O12  1  0.40043  0.58154  0.82507  1
 Tl  Tl1  1  0.69361  0.39661  0.86539  1
 Tl  Tl2  1  0.13461  0.30639  0.60339  1
 Tl  Tl3  1  0.60339  0.13461  0.30639  1
 Tl  Tl4  1  0.39661  0.86539  0.69361  1
 Tl  Tl5  1  0.86539  0.69361  0.39661  1
 Tl  Tl6  1  0.30639  0.60339  0.13461  1
 W  W1  1  0.00000  0.00000  0.00000  1
