CIF file written using JARVIS-Tools package.
data_Co3Ru
_symmetry_space_group_name_H-M  'P6_3/mmc'
_cell_length_a       5.07815
_cell_length_b       5.07815
_cell_length_c       4.04844
_cell_angle_alpha    90
_cell_angle_beta     90
_cell_angle_gamma    120

_symmetry_Int_Tables_number  194
_chemical_formula_structural  Co3Ru
_chemical_formula_sum  Co6Ru2
_cell_volume  90.41263323563655
_cell_formula_units_Z  2
loop_
  _symmetry_equiv_pos_site_id
 _symmetry_equiv_pos_as_xyz
 1  'x, y, z'
loop_
 _atom_site_type_symbol
 _atom_site_label
 _atom_site_symmetry_multiplicity
 _atom_site_fract_x
 _atom_site_fract_y
 _atom_site_fract_z
 _atom_site_fract_occupancy
 Co  Co1  1  0.16346  0.32692  0.25000  1
 Co  Co2  1  0.67308  0.83654  0.25000  1
 Co  Co3  1  0.16346  0.83654  0.25000  1
 Co  Co4  1  0.83654  0.67308  0.75000  1
 Co  Co5  1  0.32692  0.16346  0.75000  1
 Co  Co6  1  0.83654  0.16346  0.75000  1
 Ru  Ru1  1  0.33333  0.66667  0.75000  1
 Ru  Ru2  1  0.66667  0.33333  0.25000  1
