CIF file written using JARVIS-Tools package.
data_Li4Cr3NiO8
_symmetry_space_group_name_H-M  'P-1'
_cell_length_a       5.04088
_cell_length_b       5.04149
_cell_length_c       5.83359
_cell_angle_alpha    89.9731
_cell_angle_beta     106.921
_cell_angle_gamma    99.6237

_symmetry_Int_Tables_number  2
_chemical_formula_structural  Li4Cr3NiO8
_chemical_formula_sum  Li4Cr3NiO8
_cell_volume  139.65518400213475
_cell_formula_units_Z  1
loop_
  _symmetry_equiv_pos_site_id
 _symmetry_equiv_pos_as_xyz
 1  'x, y, z'
loop_
 _atom_site_type_symbol
 _atom_site_label
 _atom_site_symmetry_multiplicity
 _atom_site_fract_x
 _atom_site_fract_y
 _atom_site_fract_z
 _atom_site_fract_occupancy
 Cr  Cr1  1  -0.00000  0.50000  0.00000  1
 Cr  Cr2  1  0.00048  -0.00031  0.25317  1
 Cr  Cr3  1  -0.00048  0.00031  0.74683  1
 Li  Li1  1  0.49646  0.74773  0.87123  1
 Li  Li2  1  0.50354  0.25227  0.12877  1
 Li  Li3  1  0.50173  0.74211  0.37858  1
 Li  Li4  1  0.49827  0.25789  0.62142  1
 Ni  Ni1  1  -0.00000  0.50000  0.50000  1
 O  O1  1  0.22392  0.86987  0.05557  1
 O  O2  1  0.77608  0.13013  0.94443  1
 O  O3  1  0.22976  0.36522  0.29719  1
 O  O4  1  0.77325  0.63586  0.18245  1
 O  O5  1  0.23046  0.88830  0.55861  1
 O  O6  1  0.76954  0.11170  0.44139  1
 O  O7  1  0.22675  0.36414  0.81755  1
 O  O8  1  0.77024  0.63478  0.70281  1
