CIF file written using JARVIS-Tools package.
data_BeTePd
_symmetry_space_group_name_H-M  'Pm'
_cell_length_a       4.0066
_cell_length_b       5.44338
_cell_length_c       3.01752
_cell_angle_alpha    90
_cell_angle_beta     90
_cell_angle_gamma    116.079

_symmetry_Int_Tables_number  6
_chemical_formula_structural  BeTePd
_chemical_formula_sum  BeTePd
_cell_volume  59.11055323677223
_cell_formula_units_Z  1
loop_
  _symmetry_equiv_pos_site_id
 _symmetry_equiv_pos_as_xyz
 1  'x, y, z'
loop_
 _atom_site_type_symbol
 _atom_site_label
 _atom_site_symmetry_multiplicity
 _atom_site_fract_x
 _atom_site_fract_y
 _atom_site_fract_z
 _atom_site_fract_occupancy
 Be  Be1  1  0.41918  0.03646  0.00000  1
 Pd  Pd1  1  -0.17838  -0.15614  0.00000  1
 Te  Te1  1  0.05122  0.42103  0.00000  1
