CIF file written using JARVIS-Tools package.
data_GaAgO2
_symmetry_space_group_name_H-M  'R-3m'
_cell_length_a       6.48428
_cell_length_b       6.48428
_cell_length_c       6.48428
_cell_angle_alpha    26.9059
_cell_angle_beta     26.9059
_cell_angle_gamma    26.9059

_symmetry_Int_Tables_number  166
_chemical_formula_structural  GaAgO2
_chemical_formula_sum  GaAgO2
_cell_volume  49.23871878516318
_cell_formula_units_Z  1
loop_
  _symmetry_equiv_pos_site_id
 _symmetry_equiv_pos_as_xyz
 1  'x, y, z'
loop_
 _atom_site_type_symbol
 _atom_site_label
 _atom_site_symmetry_multiplicity
 _atom_site_fract_x
 _atom_site_fract_y
 _atom_site_fract_z
 _atom_site_fract_occupancy
 Ag  Ag1  1  0.00000  0.00000  0.00000  1
 Ga  Ga1  1  0.50000  0.50000  0.50000  1
 O  O1  1  0.88742  0.88742  0.88743  1
 O  O2  1  0.11258  0.11258  0.11258  1
