CIF file written using JARVIS-Tools package.
data_BeSnSb
_symmetry_space_group_name_H-M  'Pmm2'
_cell_length_a       4.90519
_cell_length_b       5.06836
_cell_length_c       3.07752
_cell_angle_alpha    90
_cell_angle_beta     90
_cell_angle_gamma    90.0122

_symmetry_Int_Tables_number  25
_chemical_formula_structural  BeSnSb
_chemical_formula_sum  BeSnSb
_cell_volume  76.51102095827447
_cell_formula_units_Z  1
loop_
  _symmetry_equiv_pos_site_id
 _symmetry_equiv_pos_as_xyz
 1  'x, y, z'
loop_
 _atom_site_type_symbol
 _atom_site_label
 _atom_site_symmetry_multiplicity
 _atom_site_fract_x
 _atom_site_fract_y
 _atom_site_fract_z
 _atom_site_fract_occupancy
 Be  Be1  1  -0.07589  -0.11941  0.00000  1
 Sb  Sb1  1  0.42408  -0.00312  0.00000  1
 Sn  Sn1  1  -0.07617  0.39456  0.00000  1
