CIF file written using JARVIS-Tools package.
data_NaV4O10
_symmetry_space_group_name_H-M  'Cmcm'
_cell_length_a       6.06591
_cell_length_b       6.06591
_cell_length_c       18.3547
_cell_angle_alpha    90
_cell_angle_beta     90
_cell_angle_gamma    145.143

_symmetry_Int_Tables_number  63
_chemical_formula_structural  NaV4O10
_chemical_formula_sum  Na2V8O20
_cell_volume  385.99702118559145
_cell_formula_units_Z  2
loop_
  _symmetry_equiv_pos_site_id
 _symmetry_equiv_pos_as_xyz
 1  'x, y, z'
loop_
 _atom_site_type_symbol
 _atom_site_label
 _atom_site_symmetry_multiplicity
 _atom_site_fract_x
 _atom_site_fract_y
 _atom_site_fract_z
 _atom_site_fract_occupancy
 Na  Na1  1  0.93049  0.06951  0.25000  1
 Na  Na2  1  0.06951  0.93049  0.75000  1
 O  O1  1  0.74058  0.25942  0.06429  1
 O  O2  1  0.89868  0.10132  0.56901  1
 O  O3  1  0.54061  0.45939  0.17222  1
 O  O4  1  0.74058  0.25942  0.43571  1
 O  O5  1  0.25942  0.74058  0.56429  1
 O  O6  1  0.70296  0.29704  0.67369  1
 O  O7  1  0.58129  0.41871  0.54965  1
 O  O8  1  0.89868  0.10132  0.93099  1
 O  O9  1  0.70296  0.29704  0.82631  1
 O  O10  1  0.58129  0.41871  0.95035  1
 O  O11  1  0.41871  0.58129  0.45035  1
 O  O12  1  0.29704  0.70296  0.32631  1
 O  O13  1  0.10132  0.89868  0.43099  1
 O  O14  1  0.45939  0.54061  0.82778  1
 O  O15  1  0.41871  0.58129  0.04965  1
 O  O16  1  0.45939  0.54061  0.67222  1
 O  O17  1  0.10132  0.89868  0.06901  1
 O  O18  1  0.29704  0.70296  0.17369  1
 O  O19  1  0.54061  0.45939  0.32778  1
 O  O20  1  0.25942  0.74058  0.93571  1
 V  V1  1  0.56487  0.43513  0.41528  1
 V  V2  1  0.56487  0.43513  0.08472  1
 V  V3  1  0.72715  0.27285  0.58670  1
 V  V4  1  0.72715  0.27285  0.91330  1
 V  V5  1  0.43513  0.56487  0.91528  1
 V  V6  1  0.27285  0.72715  0.41330  1
 V  V7  1  0.27285  0.72715  0.08670  1
 V  V8  1  0.43513  0.56487  0.58472  1
