CIF file written using JARVIS-Tools package.
data_PuZr4C5
_symmetry_space_group_name_H-M  'R-3m'
_cell_length_a       13.9826
_cell_length_b       13.9826
_cell_length_c       13.9826
_cell_angle_alpha    13.7983
_cell_angle_beta     13.7983
_cell_angle_gamma    13.7983

_symmetry_Int_Tables_number  166
_chemical_formula_structural  PuZr4C5
_chemical_formula_sum  PuZr4C5
_cell_volume  135.32544984423188
_cell_formula_units_Z  1
loop_
  _symmetry_equiv_pos_site_id
 _symmetry_equiv_pos_as_xyz
 1  'x, y, z'
loop_
 _atom_site_type_symbol
 _atom_site_label
 _atom_site_symmetry_multiplicity
 _atom_site_fract_x
 _atom_site_fract_y
 _atom_site_fract_z
 _atom_site_fract_occupancy
 C  C1  1  0.70177  0.70177  0.70177  1
 C  C2  1  0.50000  0.50000  0.50000  1
 C  C3  1  0.10103  0.10103  0.10103  1
 C  C4  1  0.29823  0.29823  0.29823  1
 C  C5  1  0.89897  0.89897  0.89897  1
 Pu  Pu1  1  0.00000  0.00000  0.00000  1
 Zr  Zr1  1  0.59683  0.59683  0.59683  1
 Zr  Zr2  1  0.19896  0.19896  0.19896  1
 Zr  Zr3  1  0.80104  0.80104  0.80104  1
 Zr  Zr4  1  0.40317  0.40317  0.40317  1
