CIF file written using JARVIS-Tools package.
data_Ti2As4W3
_symmetry_space_group_name_H-M  'Cm'
_cell_length_a       6.99538
_cell_length_b       6.99538
_cell_length_c       9.5494
_cell_angle_alpha    47.374
_cell_angle_beta     47.374
_cell_angle_gamma    27.7769

_symmetry_Int_Tables_number  8
_chemical_formula_structural  Ti2As4W3
_chemical_formula_sum  Ti2As4W3
_cell_volume  156.0331952172228
_cell_formula_units_Z  1
loop_
  _symmetry_equiv_pos_site_id
 _symmetry_equiv_pos_as_xyz
 1  'x, y, z'
loop_
 _atom_site_type_symbol
 _atom_site_label
 _atom_site_symmetry_multiplicity
 _atom_site_fract_x
 _atom_site_fract_y
 _atom_site_fract_z
 _atom_site_fract_occupancy
 As  As1  1  0.71385  0.71385  0.34052  1
 As  As2  1  0.27907  0.27907  0.66723  1
 As  As3  1  0.05335  0.05335  0.23714  1
 As  As4  1  0.94686  0.94686  0.76801  1
 Ti  Ti1  1  0.99853  0.99853  0.00265  1
 Ti  Ti2  1  0.63222  0.63222  0.66981  1
 W  W1  1  0.37410  0.37410  0.31828  1
 W  W2  1  0.30631  0.30631  0.06066  1
 W  W3  1  0.69571  0.69571  0.93569  1
