CIF file written using JARVIS-Tools package.
data_Li2Mn2CoO6
_symmetry_space_group_name_H-M  'C2/m'
_cell_length_a       4.87685
_cell_length_b       4.88469
_cell_length_c       9.92205
_cell_angle_alpha    85.3152
_cell_angle_beta     99.4252
_cell_angle_gamma    119.946

_symmetry_Int_Tables_number  12
_chemical_formula_structural  Li2Mn2CoO6
_chemical_formula_sum  Li4Mn4Co2O2
_cell_volume  202.04218918429032
_cell_formula_units_Z  2
loop_
  _symmetry_equiv_pos_site_id
 _symmetry_equiv_pos_as_xyz
 1  'x, y, z'
loop_
 _atom_site_type_symbol
 _atom_site_label
 _atom_site_symmetry_multiplicity
 _atom_site_fract_x
 _atom_site_fract_y
 _atom_site_fract_z
 _atom_site_fract_occupancy
 Co  Co1  1  0.50000  -0.00000  0.50000  1
 Co  Co2  1  0.00000  0.00000  0.00000  1
 Li  Li1  1  0.58622  0.32763  0.74040  1
 Li  Li2  1  0.74137  0.32753  0.25957  1
 Li  Li3  1  0.25864  0.67247  0.74043  1
 Li  Li4  1  0.41378  0.67237  0.25960  1
 Mn  Mn1  1  0.83906  0.67812  0.50000  1
 Mn  Mn2  1  0.66670  0.33335  -0.00001  1
 Mn  Mn3  1  0.33330  0.66665  0.00001  1
 Mn  Mn4  1  0.16094  0.32188  0.50000  1
 O  O1  1  0.52865  0.65800  0.60494  1
 O  O2  1  0.37436  0.00003  0.10718  1
 O  O3  1  0.62564  -0.00003  0.89282  1
 O  O4  1  0.78883  -0.00002  0.38959  1
 O  O5  1  0.21117  0.00002  0.61041  1
 O  O6  1  0.12935  0.65799  0.39506  1
 O  O7  1  0.47135  0.34200  0.39506  1
 O  O8  1  0.87065  0.34201  0.60494  1
 O  O9  1  0.96412  0.66089  0.89322  1
 O  O10  1  0.69679  0.66094  0.10674  1
 O  O11  1  0.30321  0.33906  0.89326  1
 O  O12  1  0.03588  0.33911  0.10678  1
