CIF file written using JARVIS-Tools package.
data_Fe6OF11
_symmetry_space_group_name_H-M  'Amm2'
_cell_length_a       4.83741
_cell_length_b       4.83741
_cell_length_c       9.28519
_cell_angle_alpha    90
_cell_angle_beta     90
_cell_angle_gamma    90.8333

_symmetry_Int_Tables_number  38
_chemical_formula_structural  Fe6OF11
_chemical_formula_sum  Fe6OF
_cell_volume  217.2551183369181
_cell_formula_units_Z  1
loop_
  _symmetry_equiv_pos_site_id
 _symmetry_equiv_pos_as_xyz
 1  'x, y, z'
loop_
 _atom_site_type_symbol
 _atom_site_label
 _atom_site_symmetry_multiplicity
 _atom_site_fract_x
 _atom_site_fract_y
 _atom_site_fract_z
 _atom_site_fract_occupancy
 F  F1  1  0.30225  0.70769  0.00000  1
 F  F2  1  0.20303  0.20303  0.16624  1
 F  F3  1  0.80458  0.80458  0.83011  1
 F  F4  1  0.70439  0.29507  0.67177  1
 F  F5  1  0.70439  0.29507  0.32823  1
 F  F6  1  0.20303  0.20303  0.83376  1
 F  F7  1  0.29507  0.70439  0.67177  1
 F  F8  1  0.29507  0.70439  0.32823  1
 F  F9  1  0.80458  0.80458  0.16989  1
 F  F10  1  0.77555  0.77555  0.50000  1
 F  F11  1  0.70769  0.30225  0.00000  1
 Fe  Fe1  1  0.50282  0.50282  0.16766  1
 Fe  Fe2  1  0.50282  0.50282  0.83234  1
 Fe  Fe3  1  0.47664  0.47664  0.50000  1
 Fe  Fe4  1  0.00155  0.00155  0.00000  1
 Fe  Fe5  1  0.00685  0.00685  0.35074  1
 Fe  Fe6  1  0.00685  0.00685  0.64926  1
 O  O1  1  0.20284  0.20284  0.50000  1
