CIF file written using JARVIS-Tools package.
data_LiFeF3
_symmetry_space_group_name_H-M  'C2/m'
_cell_length_a       6.31479
_cell_length_b       6.31479
_cell_length_c       5.70858
_cell_angle_alpha    83.4616
_cell_angle_beta     83.4617
_cell_angle_gamma    82.4733

_symmetry_Int_Tables_number  12
_chemical_formula_structural  LiFeF3
_chemical_formula_sum  Li4Fe4F2
_cell_volume  223.0747703060962
_cell_formula_units_Z  4
loop_
  _symmetry_equiv_pos_site_id
 _symmetry_equiv_pos_as_xyz
 1  'x, y, z'
loop_
 _atom_site_type_symbol
 _atom_site_label
 _atom_site_symmetry_multiplicity
 _atom_site_fract_x
 _atom_site_fract_y
 _atom_site_fract_z
 _atom_site_fract_occupancy
 F  F1  1  0.06606  0.71313  0.33569  1
 F  F2  1  0.85127  0.85127  0.87184  1
 F  F3  1  0.37225  0.37225  0.44609  1
 F  F4  1  0.93394  0.28687  0.66431  1
 F  F5  1  0.28687  0.93394  0.66431  1
 F  F6  1  0.62775  0.62775  0.55391  1
 F  F7  1  0.77558  0.46330  0.12037  1
 F  F8  1  0.53670  0.22442  0.87963  1
 F  F9  1  0.22442  0.53670  0.87963  1
 F  F10  1  0.14873  0.14873  0.12816  1
 F  F11  1  0.71313  0.06606  0.33569  1
 F  F12  1  0.46330  0.77558  0.12037  1
 Fe  Fe1  1  0.23460  0.23460  0.75212  1
 Fe  Fe2  1  0.15538  0.84462  -0.00000  1
 Fe  Fe3  1  0.84462  0.15538  0.00000  1
 Fe  Fe4  1  0.76540  0.76540  0.24788  1
 Li  Li1  1  0.34812  0.34812  0.14331  1
 Li  Li2  1  0.32079  0.67921  0.50000  1
 Li  Li3  1  0.67921  0.32079  0.50000  1
 Li  Li4  1  0.65188  0.65188  0.85669  1
