CIF file written using JARVIS-Tools package.
data_La2AlZn
_symmetry_space_group_name_H-M  'P4/mmm'
_cell_length_a       3.74571
_cell_length_b       3.74571
_cell_length_c       7.69349
_cell_angle_alpha    90
_cell_angle_beta     90
_cell_angle_gamma    90

_symmetry_Int_Tables_number  123
_chemical_formula_structural  La2AlZn
_chemical_formula_sum  La2AlZn
_cell_volume  107.94210129652366
_cell_formula_units_Z  1
loop_
  _symmetry_equiv_pos_site_id
 _symmetry_equiv_pos_as_xyz
 1  'x, y, z'
loop_
 _atom_site_type_symbol
 _atom_site_label
 _atom_site_symmetry_multiplicity
 _atom_site_fract_x
 _atom_site_fract_y
 _atom_site_fract_z
 _atom_site_fract_occupancy
 Al  Al1  1  0.50000  0.50000  0.00000  1
 La  La1  1  0.00000  0.00000  0.74723  1
 La  La2  1  0.00000  0.00000  0.25277  1
 Zn  Zn1  1  0.50000  0.50000  0.50000  1
