CIF file written using JARVIS-Tools package.
data_LiLuSn
_symmetry_space_group_name_H-M  'P6_3mc'
_cell_length_a       9.23509
_cell_length_b       9.2351
_cell_length_c       7.07568
_cell_angle_alpha    90
_cell_angle_beta     90
_cell_angle_gamma    120

_symmetry_Int_Tables_number  186
_chemical_formula_structural  LiLuSn
_chemical_formula_sum  Li8Lu8Sn8
_cell_volume  522.6146549704608
_cell_formula_units_Z  8
loop_
  _symmetry_equiv_pos_site_id
 _symmetry_equiv_pos_as_xyz
 1  'x, y, z'
loop_
 _atom_site_type_symbol
 _atom_site_label
 _atom_site_symmetry_multiplicity
 _atom_site_fract_x
 _atom_site_fract_y
 _atom_site_fract_z
 _atom_site_fract_occupancy
 Li  Li1  1  0.16681  0.33362  0.28791  1
 Li  Li2  1  0.16681  0.83319  0.28791  1
 Li  Li3  1  0.66638  0.83319  0.28791  1
 Li  Li4  1  0.83319  0.66638  0.78791  1
 Li  Li5  1  0.83319  0.16681  0.78791  1
 Li  Li6  1  0.33362  0.16681  0.78791  1
 Li  Li7  1  0.33333  0.66667  0.67800  1
 Li  Li8  1  0.66667  0.33333  0.17800  1
 Lu  Lu1  1  0.51114  0.02228  0.49338  1
 Lu  Lu2  1  0.51114  0.48886  0.49338  1
 Lu  Lu3  1  0.97772  0.48886  0.49338  1
 Lu  Lu4  1  0.48886  0.97772  0.99338  1
 Lu  Lu5  1  0.48886  0.51114  0.99338  1
 Lu  Lu6  1  0.02228  0.51114  0.99338  1
 Lu  Lu7  1  0.00000  0.00000  0.49939  1
 Lu  Lu8  1  0.00000  0.00000  -0.00061  1
 Sn  Sn1  1  0.16668  0.33337  0.73093  1
 Sn  Sn2  1  0.16668  0.83332  0.73093  1
 Sn  Sn3  1  0.66663  0.83332  0.73093  1
 Sn  Sn4  1  0.83332  0.66663  0.23093  1
 Sn  Sn5  1  0.83332  0.16668  0.23093  1
 Sn  Sn6  1  0.33337  0.16668  0.23093  1
 Sn  Sn7  1  0.33333  0.66667  0.25695  1
 Sn  Sn8  1  0.66667  0.33333  0.75695  1
