CIF file written using JARVIS-Tools package.
data_Li2GeSb2Te5
_symmetry_space_group_name_H-M  'R3m'
_cell_length_a       18.0732
_cell_length_b       18.0732
_cell_length_c       18.0732
_cell_angle_alpha    13.7879
_cell_angle_beta     13.7879
_cell_angle_gamma    13.7879

_symmetry_Int_Tables_number  160
_chemical_formula_structural  Li2GeSb2Te5
_chemical_formula_sum  Li2GeSb2Te5
_cell_volume  291.7943068358694
_cell_formula_units_Z  1
loop_
  _symmetry_equiv_pos_site_id
 _symmetry_equiv_pos_as_xyz
 1  'x, y, z'
loop_
 _atom_site_type_symbol
 _atom_site_label
 _atom_site_symmetry_multiplicity
 _atom_site_fract_x
 _atom_site_fract_y
 _atom_site_fract_z
 _atom_site_fract_occupancy
 Ge  Ge1  1  0.00838  0.00838  0.00838  1
 Li  Li1  1  0.41308  0.41308  0.41308  1
 Li  Li2  1  0.78485  0.78485  0.78485  1
 Sb  Sb1  1  0.19419  0.19419  0.19419  1
 Sb  Sb2  1  0.60210  0.60210  0.60210  1
 Te  Te1  1  0.30133  0.30133  0.30133  1
 Te  Te2  1  0.49513  0.49513  0.49513  1
 Te  Te3  1  0.89866  0.89866  0.89866  1
 Te  Te4  1  0.70170  0.70170  0.70170  1
 Te  Te5  1  0.10058  0.10058  0.10058  1
