CIF file written using JARVIS-Tools package.
data_HfNb2VC4
_symmetry_space_group_name_H-M  'R3m'
_cell_length_a       10.435
_cell_length_b       10.435
_cell_length_c       10.435
_cell_angle_alpha    17.441
_cell_angle_beta     17.441
_cell_angle_gamma    17.441

_symmetry_Int_Tables_number  160
_chemical_formula_structural  HfNb2VC4
_chemical_formula_sum  HfNb2VC4
_cell_volume  89.0825602780344
_cell_formula_units_Z  1
loop_
  _symmetry_equiv_pos_site_id
 _symmetry_equiv_pos_as_xyz
 1  'x, y, z'
loop_
 _atom_site_type_symbol
 _atom_site_label
 _atom_site_symmetry_multiplicity
 _atom_site_fract_x
 _atom_site_fract_y
 _atom_site_fract_z
 _atom_site_fract_occupancy
 C  C1  1  0.87310  0.87310  0.87310  1
 C  C2  1  0.62490  0.62490  0.62490  1
 C  C3  1  0.38015  0.38015  0.38015  1
 C  C4  1  0.12145  0.12145  0.12145  1
 Hf  Hf1  1  0.00313  0.00313  0.00313  1
 Nb  Nb1  1  0.49687  0.49687  0.49687  1
 Nb  Nb2  1  0.24882  0.24882  0.24882  1
 V  V1  1  0.75158  0.75158  0.75158  1
