CIF file written using JARVIS-Tools package.
data_LiMnAlO3
_symmetry_space_group_name_H-M  'P-1'
_cell_length_a       5.31223
_cell_length_b       5.90688
_cell_length_c       10.01
_cell_angle_alpha    106.375
_cell_angle_beta     103.332
_cell_angle_gamma    58.4025

_symmetry_Int_Tables_number  2
_chemical_formula_structural  LiMnAlO3
_chemical_formula_sum  Li4Mn4Al4O2
_cell_volume  255.36061727103777
_cell_formula_units_Z  4
loop_
  _symmetry_equiv_pos_site_id
 _symmetry_equiv_pos_as_xyz
 1  'x, y, z'
loop_
 _atom_site_type_symbol
 _atom_site_label
 _atom_site_symmetry_multiplicity
 _atom_site_fract_x
 _atom_site_fract_y
 _atom_site_fract_z
 _atom_site_fract_occupancy
 Al  Al1  1  0.29216  0.46440  0.54355  1
 Al  Al2  1  0.79215  0.96439  0.04355  1
 Al  Al3  1  0.70784  0.53560  0.45645  1
 Al  Al4  1  0.20785  0.03561  0.95645  1
 Li  Li1  1  0.63205  0.44416  0.87380  1
 Li  Li2  1  0.86795  0.05585  0.62620  1
 Li  Li3  1  0.36795  0.55584  0.12620  1
 Li  Li4  1  0.13205  0.94415  0.37380  1
 Mn  Mn1  1  0.04186  0.53608  0.79722  1
 Mn  Mn2  1  0.45814  0.96392  0.70278  1
 Mn  Mn3  1  0.54186  0.03608  0.29722  1
 Mn  Mn4  1  0.95814  0.46392  0.20278  1
 O  O1  1  0.82009  0.25112  0.03279  1
 O  O2  1  0.88453  0.68856  0.60475  1
 O  O3  1  0.38453  0.18856  0.10475  1
 O  O4  1  0.11547  0.31144  0.39525  1
 O  O5  1  0.61547  0.81144  0.89525  1
 O  O6  1  0.93983  0.81714  0.19740  1
 O  O7  1  0.56017  0.68286  0.30260  1
 O  O8  1  0.43983  0.31714  0.69740  1
 O  O9  1  0.17991  0.74888  0.96721  1
 O  O10  1  0.32009  0.75112  0.53279  1
 O  O11  1  0.06017  0.18286  0.80260  1
 O  O12  1  0.67991  0.24888  0.46721  1
