CIF file written using JARVIS-Tools package.
data_GaGeTe2
_symmetry_space_group_name_H-M  'P-3m1'
_cell_length_a       4.14815
_cell_length_b       4.14815
_cell_length_c       17.2004
_cell_angle_alpha    90
_cell_angle_beta     90
_cell_angle_gamma    120

_symmetry_Int_Tables_number  164
_chemical_formula_structural  GaGeTe2
_chemical_formula_sum  Ga2Ge2Te4
_cell_volume  256.316361898921
_cell_formula_units_Z  2
loop_
  _symmetry_equiv_pos_site_id
 _symmetry_equiv_pos_as_xyz
 1  'x, y, z'
loop_
 _atom_site_type_symbol
 _atom_site_label
 _atom_site_symmetry_multiplicity
 _atom_site_fract_x
 _atom_site_fract_y
 _atom_site_fract_z
 _atom_site_fract_occupancy
 Ga  Ga1  1  0.33333  0.66667  0.33178  1
 Ga  Ga2  1  0.66667  0.33333  0.66822  1
 Ge  Ge1  1  0.66667  0.33333  0.82427  1
 Ge  Ge2  1  0.33333  0.66667  0.17573  1
 Te  Te1  1  0.33333  0.66667  0.90811  1
 Te  Te2  1  0.66667  0.33333  0.09189  1
 Te  Te3  1  0.66667  0.33333  0.40785  1
 Te  Te4  1  0.33333  0.66667  0.59215  1
