CIF file written using JARVIS-Tools package.
data_Tb2Ni12P7
_symmetry_space_group_name_H-M  'P-6'
_cell_length_a       9.05333
_cell_length_b       9.05334
_cell_length_c       3.70198
_cell_angle_alpha    90
_cell_angle_beta     90
_cell_angle_gamma    120

_symmetry_Int_Tables_number  174
_chemical_formula_structural  Tb2Ni12P7
_chemical_formula_sum  Tb2Ni2P7
_cell_volume  262.77324595507076
_cell_formula_units_Z  1
loop_
  _symmetry_equiv_pos_site_id
 _symmetry_equiv_pos_as_xyz
 1  'x, y, z'
loop_
 _atom_site_type_symbol
 _atom_site_label
 _atom_site_symmetry_multiplicity
 _atom_site_fract_x
 _atom_site_fract_y
 _atom_site_fract_z
 _atom_site_fract_occupancy
 Ni  Ni1  1  0.37243  0.43399  0.00000  1
 Ni  Ni2  1  0.12124  0.21477  0.50000  1
 Ni  Ni3  1  0.78523  0.90647  0.50000  1
 Ni  Ni4  1  0.09353  0.87876  0.50000  1
 Ni  Ni5  1  0.61865  0.56941  0.50000  1
 Ni  Ni6  1  0.43059  0.04924  0.50000  1
 Ni  Ni7  1  0.95076  0.38135  0.50000  1
 Ni  Ni8  1  0.84798  0.72558  0.00000  1
 Ni  Ni9  1  0.27442  0.12241  0.00000  1
 Ni  Ni10  1  0.56601  0.93844  0.00000  1
 Ni  Ni11  1  0.06156  0.62757  0.00000  1
 Ni  Ni12  1  0.87759  0.15202  0.00000  1
 P  P1  1  0.40413  0.29482  0.50000  1
 P  P2  1  0.11183  0.40712  0.00000  1
 P  P3  1  0.59288  0.70471  0.00000  1
 P  P4  1  0.00000  0.00000  0.00000  1
 P  P5  1  0.70518  0.10931  0.50000  1
 P  P6  1  0.89069  0.59587  0.50000  1
 P  P7  1  0.29529  0.88817  0.00000  1
 Tb  Tb1  1  0.33333  0.66667  0.50000  1
 Tb  Tb2  1  0.66667  0.33333  0.00000  1
