CIF file written using JARVIS-Tools package.
data_Ni6OF11
_symmetry_space_group_name_H-M  'Pm'
_cell_length_a       3.05195
_cell_length_b       4.69976
_cell_length_c       13.6655
_cell_angle_alpha    88.978
_cell_angle_beta     90
_cell_angle_gamma    90

_symmetry_Int_Tables_number  6
_chemical_formula_structural  Ni6OF11
_chemical_formula_sum  Ni6OF
_cell_volume  195.97978307072157
_cell_formula_units_Z  1
loop_
  _symmetry_equiv_pos_site_id
 _symmetry_equiv_pos_as_xyz
 1  'x, y, z'
loop_
 _atom_site_type_symbol
 _atom_site_label
 _atom_site_symmetry_multiplicity
 _atom_site_fract_x
 _atom_site_fract_y
 _atom_site_fract_z
 _atom_site_fract_occupancy
 F  F1  1  0.50000  0.81574  0.74146  1
 F  F2  1  0.00000  0.32889  0.09271  1
 F  F3  1  0.00000  0.66699  0.90733  1
 F  F4  1  0.50000  0.19294  0.25685  1
 F  F5  1  0.50000  0.83707  0.40577  1
 F  F6  1  0.00000  0.68270  0.23933  1
 F  F7  1  0.00000  0.67041  0.57398  1
 F  F8  1  0.50000  0.17019  0.59221  1
 F  F9  1  0.50000  0.16353  0.93088  1
 F  F10  1  0.00000  0.31477  0.76155  1
 F  F11  1  0.00000  0.33436  0.42390  1
 Ni  Ni1  1  0.50000  0.48512  0.83603  1
 Ni  Ni2  1  0.00000  0.99378  0.66733  1
 Ni  Ni3  1  0.50000  0.50292  0.49859  1
 Ni  Ni4  1  0.00000  0.01184  0.32981  1
 Ni  Ni5  1  0.50000  0.52401  0.16004  1
 Ni  Ni6  1  0.00000  0.97415  0.00872  1
 O  O1  1  0.50000  0.83058  0.07353  1
