CIF file written using JARVIS-Tools package.
data_FeCoPt2
_symmetry_space_group_name_H-M  'R3m'
_cell_length_a       8.76114
_cell_length_b       8.76114
_cell_length_c       8.76113
_cell_angle_alpha    17.6121
_cell_angle_beta     17.612
_cell_angle_gamma    17.6121

_symmetry_Int_Tables_number  160
_chemical_formula_structural  FeCoPt2
_chemical_formula_sum  FeCoPt2
_cell_volume  53.73657930398967
_cell_formula_units_Z  1
loop_
  _symmetry_equiv_pos_site_id
 _symmetry_equiv_pos_as_xyz
 1  'x, y, z'
loop_
 _atom_site_type_symbol
 _atom_site_label
 _atom_site_symmetry_multiplicity
 _atom_site_fract_x
 _atom_site_fract_y
 _atom_site_fract_z
 _atom_site_fract_occupancy
 Co  Co1  1  0.00642  0.00642  0.00642  1
 Fe  Fe1  1  0.74424  0.74424  0.74424  1
 Pt  Pt1  1  0.49305  0.49305  0.49305  1
 Pt  Pt2  1  0.25630  0.25630  0.25630  1
