CIF file written using JARVIS-Tools package.
data_PbBrCl
_symmetry_space_group_name_H-M  'P2_1/m'
_cell_length_a       7.80198
_cell_length_b       4.59356
_cell_length_c       5.61732
_cell_angle_alpha    90
_cell_angle_beta     111.817
_cell_angle_gamma    90

_symmetry_Int_Tables_number  11
_chemical_formula_structural  PbBrCl
_chemical_formula_sum  Pb2Br2Cl2
_cell_volume  186.8984151536166
_cell_formula_units_Z  2
loop_
  _symmetry_equiv_pos_site_id
 _symmetry_equiv_pos_as_xyz
 1  'x, y, z'
loop_
 _atom_site_type_symbol
 _atom_site_label
 _atom_site_symmetry_multiplicity
 _atom_site_fract_x
 _atom_site_fract_y
 _atom_site_fract_z
 _atom_site_fract_occupancy
 Br  Br1  1  0.07725  0.75000  0.77613  1
 Br  Br2  1  0.92275  0.25000  0.22387  1
 Cl  Cl1  1  0.44215  0.25000  0.71072  1
 Cl  Cl2  1  0.55785  0.75000  0.28928  1
 Pb  Pb1  1  0.71586  0.75000  0.88432  1
 Pb  Pb2  1  0.28414  0.25000  0.11568  1
