CIF file written using JARVIS-Tools package.
data_Nd2Ni12As7
_symmetry_space_group_name_H-M  'P-6'
_cell_length_a       9.40717
_cell_length_b       9.40717
_cell_length_c       3.90488
_cell_angle_alpha    90
_cell_angle_beta     90
_cell_angle_gamma    120

_symmetry_Int_Tables_number  174
_chemical_formula_structural  Nd2Ni12As7
_chemical_formula_sum  Nd2Ni2As7
_cell_volume  299.26547933817244
_cell_formula_units_Z  1
loop_
  _symmetry_equiv_pos_site_id
 _symmetry_equiv_pos_as_xyz
 1  'x, y, z'
loop_
 _atom_site_type_symbol
 _atom_site_label
 _atom_site_symmetry_multiplicity
 _atom_site_fract_x
 _atom_site_fract_y
 _atom_site_fract_z
 _atom_site_fract_occupancy
 As  As1  1  0.00000  0.00000  0.00000  1
 As  As2  1  0.40145  0.29930  0.50000  1
 As  As3  1  0.11139  0.40041  0.00000  1
 As  As4  1  0.59959  0.71098  0.00000  1
 As  As5  1  0.28902  0.88861  0.00000  1
 As  As6  1  0.70070  0.10215  0.50000  1
 As  As7  1  0.89785  0.59855  0.50000  1
 Nd  Nd1  1  0.66667  0.33333  0.00000  1
 Nd  Nd2  1  0.33333  0.66667  0.50000  1
 Ni  Ni1  1  0.85175  0.72128  0.00000  1
 Ni  Ni2  1  0.27872  0.13047  0.00000  1
 Ni  Ni3  1  0.42317  0.04854  0.50000  1
 Ni  Ni4  1  0.56291  0.94273  0.00000  1
 Ni  Ni5  1  0.05727  0.62018  0.00000  1
 Ni  Ni6  1  0.86953  0.14825  0.00000  1
 Ni  Ni7  1  0.62537  0.57683  0.50000  1
 Ni  Ni8  1  0.09583  0.88938  0.50000  1
 Ni  Ni9  1  0.79355  0.90417  0.50000  1
 Ni  Ni10  1  0.11062  0.20645  0.50000  1
 Ni  Ni11  1  0.95146  0.37463  0.50000  1
 Ni  Ni12  1  0.37982  0.43709  0.00000  1
