CIF file written using JARVIS-Tools package.
data_RbGaH4
_symmetry_space_group_name_H-M  'Pnma'
_cell_length_a       5.67848
_cell_length_b       7.42079
_cell_length_c       9.28067
_cell_angle_alpha    90
_cell_angle_beta     90
_cell_angle_gamma    90

_symmetry_Int_Tables_number  62
_chemical_formula_structural  RbGaH4
_chemical_formula_sum  Rb4Ga4H6
_cell_volume  391.07664330111743
_cell_formula_units_Z  4
loop_
  _symmetry_equiv_pos_site_id
 _symmetry_equiv_pos_as_xyz
 1  'x, y, z'
loop_
 _atom_site_type_symbol
 _atom_site_label
 _atom_site_symmetry_multiplicity
 _atom_site_fract_x
 _atom_site_fract_y
 _atom_site_fract_z
 _atom_site_fract_occupancy
 Ga  Ga1  1  0.25000  0.69135  0.06669  1
 Ga  Ga2  1  0.25000  0.80865  0.56669  1
 Ga  Ga3  1  0.75000  0.30865  0.93331  1
 Ga  Ga4  1  0.75000  0.19135  0.43331  1
 H  H1  1  0.47773  0.81864  0.08185  1
 H  H2  1  0.25000  0.59519  0.91319  1
 H  H3  1  0.25000  0.90481  0.41319  1
 H  H4  1  0.75000  0.40481  0.08681  1
 H  H5  1  0.52227  0.18136  0.91815  1
 H  H6  1  0.25000  0.55188  0.19811  1
 H  H7  1  0.25000  0.94812  0.69811  1
 H  H8  1  0.75000  0.09519  0.58681  1
 H  H9  1  0.75000  0.05188  0.30189  1
 H  H10  1  0.97773  0.31864  0.41815  1
 H  H11  1  0.52227  0.31864  0.41815  1
 H  H12  1  0.75000  0.44812  0.80189  1
 H  H13  1  0.02227  0.68136  0.58185  1
 H  H14  1  0.02227  0.81864  0.08185  1
 H  H15  1  0.47773  0.68136  0.58185  1
 H  H16  1  0.97773  0.18136  0.91815  1
 Rb  Rb1  1  0.75000  0.83338  0.82033  1
 Rb  Rb2  1  0.75000  0.66662  0.32033  1
 Rb  Rb3  1  0.25000  0.16662  0.17967  1
 Rb  Rb4  1  0.25000  0.33338  0.67967  1
