CIF file written using JARVIS-Tools package.
data_Li4Cr2P4H3O16
_symmetry_space_group_name_H-M  'P1'
_cell_length_a       4.8698
_cell_length_b       7.57749
_cell_length_c       8.19608
_cell_angle_alpha    89.6378
_cell_angle_beta     88.2977
_cell_angle_gamma    75.7299

_symmetry_Int_Tables_number  1
_chemical_formula_structural  Li4Cr2P4H3O16
_chemical_formula_sum  Li4Cr2P4H3O6
_cell_volume  292.98109779476783
_cell_formula_units_Z  1
loop_
  _symmetry_equiv_pos_site_id
 _symmetry_equiv_pos_as_xyz
 1  'x, y, z'
loop_
 _atom_site_type_symbol
 _atom_site_label
 _atom_site_symmetry_multiplicity
 _atom_site_fract_x
 _atom_site_fract_y
 _atom_site_fract_z
 _atom_site_fract_occupancy
 Cr  Cr1  1  0.00650  0.50090  0.99426  1
 Cr  Cr2  1  0.49485  0.00243  0.49665  1
 H  H1  1  0.53641  0.49865  0.65445  1
 H  H2  1  0.96573  0.01214  0.00997  1
 H  H3  1  0.44421  0.51365  0.42822  1
 Li  Li1  1  0.11968  0.32492  0.34641  1
 Li  Li2  1  0.39184  0.15107  0.87549  1
 Li  Li3  1  0.59838  0.83951  0.11976  1
 Li  Li4  1  0.88782  0.68028  0.64218  1
 O  O1  1  0.99124  0.70033  0.16992  1
 O  O2  1  0.51792  0.19258  0.31972  1
 O  O3  1  0.38983  0.34091  0.04472  1
 O  O4  1  0.16614  0.64265  0.81458  1
 O  O5  1  0.35164  0.84297  0.30861  1
 O  O6  1  0.00671  0.29606  0.82598  1
 O  O7  1  0.10324  0.17545  0.53521  1
 O  O8  1  0.23696  0.54906  0.41644  1
 O  O9  1  0.75724  0.05341  0.06020  1
 O  O10  1  0.85535  0.35046  0.17358  1
 O  O11  1  0.62674  0.65740  0.94147  1
 O  O12  1  0.71672  0.45135  0.59248  1
 O  O13  1  0.24678  0.94160  0.94019  1
 O  O14  1  0.65522  0.14348  0.69171  1
 O  O15  1  0.48062  0.81194  0.67130  1
 O  O16  1  0.88343  0.83996  0.45379  1
 P  P1  1  0.37443  0.76615  0.84275  1
 P  P2  1  0.11266  0.74663  0.32888  1
 P  P3  1  0.87921  0.25136  0.66829  1
 P  P4  1  0.63139  0.24082  0.15267  1
