CIF file written using JARVIS-Tools package.
data_ErMnAl
_symmetry_space_group_name_H-M  'Imma'
_cell_length_a       5.23481
_cell_length_b       5.23481
_cell_length_c       5.2348
_cell_angle_alpha    120.641
_cell_angle_beta     116.793
_cell_angle_gamma    92.2675

_symmetry_Int_Tables_number  74
_chemical_formula_structural  ErMnAl
_chemical_formula_sum  Er2Mn2Al2
_cell_volume  103.17506682063004
_cell_formula_units_Z  2
loop_
  _symmetry_equiv_pos_site_id
 _symmetry_equiv_pos_as_xyz
 1  'x, y, z'
loop_
 _atom_site_type_symbol
 _atom_site_label
 _atom_site_symmetry_multiplicity
 _atom_site_fract_x
 _atom_site_fract_y
 _atom_site_fract_z
 _atom_site_fract_occupancy
 Al  Al1  1  0.00000  0.50000  0.50000  1
 Al  Al2  1  0.50000  0.50000  -0.00000  1
 Er  Er1  1  0.13732  0.88732  0.25000  1
 Er  Er2  1  0.86268  0.11268  0.75000  1
 Mn  Mn1  1  0.50000  -0.00000  0.00000  1
 Mn  Mn2  1  0.50000  0.50000  0.50000  1
