CIF file written using JARVIS-Tools package.
data_ErMnFeO4
_symmetry_space_group_name_H-M  'R3m'
_cell_length_a       8.51003
_cell_length_b       8.51003
_cell_length_c       8.51002
_cell_angle_alpha    23.1515
_cell_angle_beta     23.1515
_cell_angle_gamma    23.1515

_symmetry_Int_Tables_number  160
_chemical_formula_structural  ErMnFeO4
_chemical_formula_sum  ErMnFeO4
_cell_volume  83.62493157790635
_cell_formula_units_Z  1
loop_
  _symmetry_equiv_pos_site_id
 _symmetry_equiv_pos_as_xyz
 1  'x, y, z'
loop_
 _atom_site_type_symbol
 _atom_site_label
 _atom_site_symmetry_multiplicity
 _atom_site_fract_x
 _atom_site_fract_y
 _atom_site_fract_z
 _atom_site_fract_occupancy
 Er  Er1  1  -0.00486  -0.00486  -0.00486  1
 Fe  Fe1  1  0.78508  0.78508  0.78508  1
 Mn  Mn1  1  0.21002  0.21002  0.21002  1
 O  O1  1  0.70689  0.70689  0.70689  1
 O  O2  1  0.28801  0.28801  0.28801  1
 O  O3  1  0.87758  0.87758  0.87758  1
 O  O4  1  0.13208  0.13208  0.13208  1
