CIF file written using JARVIS-Tools package.
data_RbBrCl
_symmetry_space_group_name_H-M  'Pm'
_cell_length_a       6.63203
_cell_length_b       6.20326
_cell_length_c       4.57297
_cell_angle_alpha    90
_cell_angle_beta     90
_cell_angle_gamma    52.1571

_symmetry_Int_Tables_number  6
_chemical_formula_structural  RbBrCl
_chemical_formula_sum  RbBrCl
_cell_volume  148.56785151030135
_cell_formula_units_Z  1
loop_
  _symmetry_equiv_pos_site_id
 _symmetry_equiv_pos_as_xyz
 1  'x, y, z'
loop_
 _atom_site_type_symbol
 _atom_site_label
 _atom_site_symmetry_multiplicity
 _atom_site_fract_x
 _atom_site_fract_y
 _atom_site_fract_z
 _atom_site_fract_occupancy
 Br  Br1  1  0.47705  -0.05180  0.00000  1
 Cl  Cl1  1  -0.02261  0.44861  0.00000  1
 Rb  Rb1  1  -0.02393  -0.05036  0.00000  1
