CIF file written using JARVIS-Tools package.
data_InSnBr
_symmetry_space_group_name_H-M  'Pm'
_cell_length_a       6.26133
_cell_length_b       5.91023
_cell_length_c       3.4003
_cell_angle_alpha    90
_cell_angle_beta     90
_cell_angle_gamma    59.0042

_symmetry_Int_Tables_number  6
_chemical_formula_structural  InSnBr
_chemical_formula_sum  InSnBr
_cell_volume  107.86331196471241
_cell_formula_units_Z  1
loop_
  _symmetry_equiv_pos_site_id
 _symmetry_equiv_pos_as_xyz
 1  'x, y, z'
loop_
 _atom_site_type_symbol
 _atom_site_label
 _atom_site_symmetry_multiplicity
 _atom_site_fract_x
 _atom_site_fract_y
 _atom_site_fract_z
 _atom_site_fract_occupancy
 Br  Br1  1  -0.15023  0.04048  0.00000  1
 In  In1  1  0.47261  -0.12956  0.00000  1
 Sn  Sn1  1  0.00188  0.40795  0.00000  1
