CIF file written using JARVIS-Tools package.
data_Nd2Fe15Co2H3
_symmetry_space_group_name_H-M  'R-3m'
_cell_length_a       6.36656
_cell_length_b       6.36656
_cell_length_c       6.36657
_cell_angle_alpha    83.6451
_cell_angle_beta     83.6451
_cell_angle_gamma    83.6451

_symmetry_Int_Tables_number  166
_chemical_formula_structural  Nd2Fe15Co2H3
_chemical_formula_sum  Nd2Fe5Co2H3
_cell_volume  253.6263868572942
_cell_formula_units_Z  1
loop_
  _symmetry_equiv_pos_site_id
 _symmetry_equiv_pos_as_xyz
 1  'x, y, z'
loop_
 _atom_site_type_symbol
 _atom_site_label
 _atom_site_symmetry_multiplicity
 _atom_site_fract_x
 _atom_site_fract_y
 _atom_site_fract_z
 _atom_site_fract_occupancy
 Co  Co1  1  0.90527  0.90527  0.90527  1
 Co  Co2  1  0.09473  0.09473  0.09473  1
 Fe  Fe1  1  0.00000  -0.00000  0.50000  1
 Fe  Fe2  1  0.50000  0.00000  0.00000  1
 Fe  Fe3  1  0.00000  0.50000  0.00000  1
 Fe  Fe4  1  0.71719  0.28281  0.00000  1
 Fe  Fe5  1  0.00000  0.71719  0.28281  1
 Fe  Fe6  1  0.28281  0.71719  0.00000  1
 Fe  Fe7  1  0.28281  -0.00000  0.71719  1
 Fe  Fe8  1  0.33754  0.33754  0.85007  1
 Fe  Fe9  1  0.85007  0.33754  0.33754  1
 Fe  Fe10  1  0.33754  0.85007  0.33754  1
 Fe  Fe11  1  0.66246  0.66246  0.14993  1
 Fe  Fe12  1  0.14993  0.66246  0.66246  1
 Fe  Fe13  1  0.66246  0.14993  0.66246  1
 Fe  Fe14  1  -0.00000  0.28281  0.71719  1
 Fe  Fe15  1  0.71719  0.00000  0.28281  1
 H  H1  1  0.00000  0.50000  0.50000  1
 H  H2  1  0.50000  0.00000  0.50000  1
 H  H3  1  0.50000  0.50000  0.00000  1
 Nd  Nd1  1  0.34521  0.34521  0.34521  1
 Nd  Nd2  1  0.65479  0.65479  0.65479  1
