CIF file written using JARVIS-Tools package.
data_Cr2Rh2C
_symmetry_space_group_name_H-M  'R-3m'
_cell_length_a       8.86808
_cell_length_b       8.86808
_cell_length_c       8.86808
_cell_angle_alpha    17.8043
_cell_angle_beta     17.8043
_cell_angle_gamma    17.8043

_symmetry_Int_Tables_number  166
_chemical_formula_structural  Cr2Rh2C
_chemical_formula_sum  Cr2Rh2C
_cell_volume  56.92173169300778
_cell_formula_units_Z  1
loop_
  _symmetry_equiv_pos_site_id
 _symmetry_equiv_pos_as_xyz
 1  'x, y, z'
loop_
 _atom_site_type_symbol
 _atom_site_label
 _atom_site_symmetry_multiplicity
 _atom_site_fract_x
 _atom_site_fract_y
 _atom_site_fract_z
 _atom_site_fract_occupancy
 C  C1  1  0.00000  0.00000  0.00000  1
 Cr  Cr1  1  0.37739  0.37739  0.37739  1
 Cr  Cr2  1  0.62261  0.62261  0.62261  1
 Rh  Rh1  1  0.87801  0.87801  0.87801  1
 Rh  Rh2  1  0.12199  0.12199  0.12199  1
