CIF file written using JARVIS-Tools package.
data_Cu5Ge2
_symmetry_space_group_name_H-M  'R3m'
_cell_length_a       7.01228
_cell_length_b       7.01228
_cell_length_c       7.01228
_cell_angle_alpha    34.1287
_cell_angle_beta     34.1287
_cell_angle_gamma    34.1287

_symmetry_Int_Tables_number  160
_chemical_formula_structural  Cu5Ge2
_chemical_formula_sum  Cu5Ge2
_cell_volume  96.77007784879008
_cell_formula_units_Z  1
loop_
  _symmetry_equiv_pos_site_id
 _symmetry_equiv_pos_as_xyz
 1  'x, y, z'
loop_
 _atom_site_type_symbol
 _atom_site_label
 _atom_site_symmetry_multiplicity
 _atom_site_fract_x
 _atom_site_fract_y
 _atom_site_fract_z
 _atom_site_fract_occupancy
 Cu  Cu1  1  0.74488  0.74488  0.74488  1
 Cu  Cu2  1  0.25979  0.25979  0.25979  1
 Cu  Cu3  1  0.87520  0.87520  0.87520  1
 Cu  Cu4  1  0.12819  0.12819  0.12819  1
 Cu  Cu5  1  0.62122  0.62122  0.62122  1
 Ge  Ge1  1  0.00436  0.00436  0.00436  1
 Ge  Ge2  1  0.49136  0.49136  0.49136  1
