CIF file written using JARVIS-Tools package.
data_KGe3As3
_symmetry_space_group_name_H-M  'Pnma'
_cell_length_a       3.89014
_cell_length_b       9.95451
_cell_length_c       18.7588
_cell_angle_alpha    90
_cell_angle_beta     90
_cell_angle_gamma    90

_symmetry_Int_Tables_number  62
_chemical_formula_structural  KGe3As3
_chemical_formula_sum  K4Ge2As2
_cell_volume  726.4245369325291
_cell_formula_units_Z  4
loop_
  _symmetry_equiv_pos_site_id
 _symmetry_equiv_pos_as_xyz
 1  'x, y, z'
loop_
 _atom_site_type_symbol
 _atom_site_label
 _atom_site_symmetry_multiplicity
 _atom_site_fract_x
 _atom_site_fract_y
 _atom_site_fract_z
 _atom_site_fract_occupancy
 As  As1  1  0.75000  0.24294  0.22039  1
 As  As2  1  0.75000  0.74294  0.27961  1
 As  As3  1  0.25000  0.02553  0.37269  1
 As  As4  1  0.25000  0.52553  0.12731  1
 As  As5  1  0.75000  0.47447  0.87269  1
 As  As6  1  0.75000  0.97447  0.62731  1
 As  As7  1  0.25000  0.62127  0.57711  1
 As  As8  1  0.75000  0.87873  0.07711  1
 As  As9  1  0.75000  0.37873  0.42289  1
 As  As10  1  0.25000  0.25706  0.72039  1
 As  As11  1  0.25000  0.75706  0.77961  1
 As  As12  1  0.25000  0.12127  0.92289  1
 Ge  Ge1  1  0.25000  0.89953  0.25568  1
 Ge  Ge2  1  0.25000  0.32296  0.84701  1
 Ge  Ge3  1  0.25000  0.82296  0.65299  1
 Ge  Ge4  1  0.75000  0.17704  0.34701  1
 Ge  Ge5  1  0.25000  0.39953  0.24432  1
 Ge  Ge6  1  0.25000  0.01512  0.13052  1
 Ge  Ge7  1  0.75000  0.60047  0.75568  1
 Ge  Ge8  1  0.75000  0.10047  0.74432  1
 Ge  Ge9  1  0.25000  0.51512  0.36948  1
 Ge  Ge10  1  0.75000  0.48488  0.63052  1
 Ge  Ge11  1  0.75000  0.98488  0.86948  1
 Ge  Ge12  1  0.75000  0.67704  0.15299  1
 K  K1  1  0.75000  0.27221  0.04302  1
 K  K2  1  0.75000  0.77221  0.45698  1
 K  K3  1  0.25000  0.72779  0.95698  1
 K  K4  1  0.25000  0.22779  0.54302  1
