CIF file written using JARVIS-Tools package.
data_Li2Co3BiO8
_symmetry_space_group_name_H-M  'R-3m'
_cell_length_a       6.17854
_cell_length_b       6.17855
_cell_length_c       6.17855
_cell_angle_alpha    55.5895
_cell_angle_beta     55.5895
_cell_angle_gamma    55.5895

_symmetry_Int_Tables_number  166
_chemical_formula_structural  Li2Co3BiO8
_chemical_formula_sum  Li2Co3BiO8
_cell_volume  149.70754507263447
_cell_formula_units_Z  1
loop_
  _symmetry_equiv_pos_site_id
 _symmetry_equiv_pos_as_xyz
 1  'x, y, z'
loop_
 _atom_site_type_symbol
 _atom_site_label
 _atom_site_symmetry_multiplicity
 _atom_site_fract_x
 _atom_site_fract_y
 _atom_site_fract_z
 _atom_site_fract_occupancy
 Bi  Bi1  1  0.50000  0.50000  0.50000  1
 Co  Co1  1  -0.00000  0.50000  0.50000  1
 Co  Co2  1  0.50000  -0.00000  0.50000  1
 Co  Co3  1  0.50000  0.50000  0.00000  1
 Li  Li1  1  0.10970  0.10970  0.10970  1
 Li  Li2  1  0.89030  0.89030  0.89030  1
 O  O1  1  0.24249  0.71128  0.24249  1
 O  O2  1  0.71128  0.24249  0.24249  1
 O  O3  1  0.73173  0.73173  0.73173  1
 O  O4  1  0.24249  0.24249  0.71128  1
 O  O5  1  0.75751  0.75751  0.28872  1
 O  O6  1  0.26827  0.26827  0.26827  1
 O  O7  1  0.28872  0.75751  0.75751  1
 O  O8  1  0.75751  0.28872  0.75751  1
