CIF file written using JARVIS-Tools package.
data_CePtRh
_symmetry_space_group_name_H-M  'Imma'
_cell_length_a       5.42469
_cell_length_b       5.42469
_cell_length_c       5.42468
_cell_angle_alpha    120.341
_cell_angle_beta     119.619
_cell_angle_gamma    90.0364

_symmetry_Int_Tables_number  74
_chemical_formula_structural  CePtRh
_chemical_formula_sum  Ce2Pt2Rh2
_cell_volume  112.90696930957827
_cell_formula_units_Z  2
loop_
  _symmetry_equiv_pos_site_id
 _symmetry_equiv_pos_as_xyz
 1  'x, y, z'
loop_
 _atom_site_type_symbol
 _atom_site_label
 _atom_site_symmetry_multiplicity
 _atom_site_fract_x
 _atom_site_fract_y
 _atom_site_fract_z
 _atom_site_fract_occupancy
 Ce  Ce1  1  0.12254  0.87254  0.25000  1
 Ce  Ce2  1  0.87746  0.12746  0.75000  1
 Pt  Pt1  1  0.50000  0.50000  0.50000  1
 Pt  Pt2  1  0.50000  0.00000  -0.00000  1
 Rh  Rh1  1  0.50000  0.50000  -0.00000  1
 Rh  Rh2  1  -0.00000  0.50000  0.50000  1
