CIF file written using JARVIS-Tools package.
data_Li4Cr5BiO12
_symmetry_space_group_name_H-M  'C2/m'
_cell_length_a       5.20527
_cell_length_b       5.1981
_cell_length_c       9.98549
_cell_angle_alpha    95.0113
_cell_angle_beta     100.049
_cell_angle_gamma    59.9542

_symmetry_Int_Tables_number  12
_chemical_formula_structural  Li4Cr5BiO12
_chemical_formula_sum  Li4Cr5BiO2
_cell_volume  230.28934357465266
_cell_formula_units_Z  1
loop_
  _symmetry_equiv_pos_site_id
 _symmetry_equiv_pos_as_xyz
 1  'x, y, z'
loop_
 _atom_site_type_symbol
 _atom_site_label
 _atom_site_symmetry_multiplicity
 _atom_site_fract_x
 _atom_site_fract_y
 _atom_site_fract_z
 _atom_site_fract_occupancy
 Bi  Bi1  1  0.00002  0.00001  0.00008  1
 Cr  Cr1  1  0.16385  0.67229  0.50000  1
 Cr  Cr2  1  0.66657  0.66685  -0.00002  1
 Cr  Cr3  1  0.33342  0.33315  -0.00002  1
 Cr  Cr4  1  0.83611  0.32777  0.50000  1
 Cr  Cr5  1  0.50001  -0.00001  0.50000  1
 Li  Li1  1  0.24635  0.33517  0.73715  1
 Li  Li2  1  0.41845  0.33523  0.26284  1
 Li  Li3  1  0.58159  0.66476  0.73718  1
 Li  Li4  1  0.75362  0.66482  0.26280  1
 O  O1  1  0.57059  -0.00029  0.88454  1
 O  O2  1  0.35343  0.60878  0.88443  1
 O  O3  1  0.13289  0.34229  0.39911  1
 O  O4  1  0.47516  0.65778  0.39908  1
 O  O5  1  0.03779  0.60865  0.11557  1
 O  O6  1  0.96165  0.39144  0.88442  1
 O  O7  1  0.86706  0.65777  0.60091  1
 O  O8  1  0.64677  0.39157  0.11558  1
 O  O9  1  0.42983  -0.00029  0.11547  1
 O  O10  1  0.52482  0.34228  0.60089  1
 O  O11  1  0.20973  -0.00001  0.60172  1
 O  O12  1  0.79028  -0.00000  0.39827  1
