CIF file written using JARVIS-Tools package.
data_Ce2SiGe
_symmetry_space_group_name_H-M  'Pmc2_1'
_cell_length_a       3.9922
_cell_length_b       5.88867
_cell_length_c       8.24089
_cell_angle_alpha    90
_cell_angle_beta     90
_cell_angle_gamma    90

_symmetry_Int_Tables_number  26
_chemical_formula_structural  Ce2SiGe
_chemical_formula_sum  Ce4Si2Ge2
_cell_volume  193.73260746336746
_cell_formula_units_Z  2
loop_
  _symmetry_equiv_pos_site_id
 _symmetry_equiv_pos_as_xyz
 1  'x, y, z'
loop_
 _atom_site_type_symbol
 _atom_site_label
 _atom_site_symmetry_multiplicity
 _atom_site_fract_x
 _atom_site_fract_y
 _atom_site_fract_z
 _atom_site_fract_occupancy
 Ce  Ce1  1  0.00000  0.13065  0.68229  1
 Ce  Ce2  1  0.00000  0.86935  0.18229  1
 Ce  Ce3  1  0.50000  0.36425  0.31870  1
 Ce  Ce4  1  0.50000  0.63575  0.81870  1
 Ge  Ge1  1  0.00000  0.61797  0.53616  1
 Ge  Ge2  1  0.00000  0.38203  0.03616  1
 Si  Si1  1  0.50000  0.88334  0.46285  1
 Si  Si2  1  0.50000  0.11666  0.96285  1
