CIF file written using JARVIS-Tools package.
data_Ba2AlGa3
_symmetry_space_group_name_H-M  'Cm'
_cell_length_a       6.18831
_cell_length_b       6.1883
_cell_length_c       7.91703
_cell_angle_alpha    50.7552
_cell_angle_beta     50.7552
_cell_angle_gamma    47.0299

_symmetry_Int_Tables_number  8
_chemical_formula_structural  Ba2AlGa3
_chemical_formula_sum  Ba2AlGa3
_cell_volume  160.5863846363972
_cell_formula_units_Z  1
loop_
  _symmetry_equiv_pos_site_id
 _symmetry_equiv_pos_as_xyz
 1  'x, y, z'
loop_
 _atom_site_type_symbol
 _atom_site_label
 _atom_site_symmetry_multiplicity
 _atom_site_fract_x
 _atom_site_fract_y
 _atom_site_fract_z
 _atom_site_fract_occupancy
 Al  Al1  1  0.42406  0.42406  0.41655  1
 Ba  Ba1  1  0.25160  0.25160  0.18909  1
 Ba  Ba2  1  0.74824  0.74824  0.81057  1
 Ga  Ga1  1  0.57335  0.57335  0.58409  1
 Ga  Ga2  1  0.92570  0.92570  0.23699  1
 Ga  Ga3  1  0.07704  0.07704  0.76271  1
