CIF file written using JARVIS-Tools package.
data_Li7Cr2O8
_symmetry_space_group_name_H-M  'P1'
_cell_length_a       5.14962
_cell_length_b       5.20581
_cell_length_c       7.74356
_cell_angle_alpha    69.4408
_cell_angle_beta     81.6657
_cell_angle_gamma    67.1072

_symmetry_Int_Tables_number  1
_chemical_formula_structural  Li7Cr2O8
_chemical_formula_sum  Li7Cr2O8
_cell_volume  179.04986331624278
_cell_formula_units_Z  1
loop_
  _symmetry_equiv_pos_site_id
 _symmetry_equiv_pos_as_xyz
 1  'x, y, z'
loop_
 _atom_site_type_symbol
 _atom_site_label
 _atom_site_symmetry_multiplicity
 _atom_site_fract_x
 _atom_site_fract_y
 _atom_site_fract_z
 _atom_site_fract_occupancy
 Cr  Cr1  1  0.70375  0.62121  0.22742  1
 Cr  Cr2  1  0.29362  0.37266  0.76701  1
 Li  Li1  1  0.22464  0.79494  -0.00400  1
 Li  Li2  1  0.72517  0.77568  0.81289  1
 Li  Li3  1  0.76433  0.22324  0.01064  1
 Li  Li4  1  0.24214  0.95012  0.54327  1
 Li  Li5  1  0.71245  0.06622  0.45039  1
 Li  Li6  1  0.26920  0.22864  0.20824  1
 Li  Li7  1  0.79806  0.51535  0.56756  1
 O  O1  1  0.02395  0.68874  0.63801  1
 O  O2  1  0.55070  0.49794  0.78994  1
 O  O3  1  0.84577  0.81313  0.02914  1
 O  O4  1  0.50001  0.46942  0.16421  1
 O  O5  1  0.94772  0.30711  0.38258  1
 O  O6  1  0.54493  0.84884  0.36498  1
 O  O7  1  0.43553  0.11605  0.65318  1
 O  O8  1  0.16407  0.20085  0.97976  1
