CIF file written using JARVIS-Tools package.
data_CdCo2N2
_symmetry_space_group_name_H-M  'R-3m'
_cell_length_a       3.09146
_cell_length_b       3.0908
_cell_length_c       8.61334
_cell_angle_alpha    90
_cell_angle_beta     68.8719
_cell_angle_gamma    119.993

_symmetry_Int_Tables_number  166
_chemical_formula_structural  CdCo2N2
_chemical_formula_sum  CdCo2N2
_cell_volume  64.81339972102843
_cell_formula_units_Z  1
loop_
  _symmetry_equiv_pos_site_id
 _symmetry_equiv_pos_as_xyz
 1  'x, y, z'
loop_
 _atom_site_type_symbol
 _atom_site_label
 _atom_site_symmetry_multiplicity
 _atom_site_fract_x
 _atom_site_fract_y
 _atom_site_fract_z
 _atom_site_fract_occupancy
 Cd  Cd1  1  0.00000  0.00000  0.50000  1
 Co  Co1  1  0.52375  0.26188  0.10671  1
 Co  Co2  1  0.47625  0.73812  0.89329  1
 N  N1  1  0.87610  0.43805  0.84352  1
 N  N2  1  0.12390  0.56195  0.15648  1
