CIF file written using JARVIS-Tools package.
data_Ce6Mg23P
_symmetry_space_group_name_H-M  'Fm-3m'
_cell_length_a       10.1665
_cell_length_b       10.1665
_cell_length_c       10.1665
_cell_angle_alpha    60
_cell_angle_beta     60
_cell_angle_gamma    60

_symmetry_Int_Tables_number  225
_chemical_formula_structural  Ce6Mg23P
_chemical_formula_sum  Ce6Mg23P
_cell_volume  743.0122354320519
_cell_formula_units_Z  1
loop_
  _symmetry_equiv_pos_site_id
 _symmetry_equiv_pos_as_xyz
 1  'x, y, z'
loop_
 _atom_site_type_symbol
 _atom_site_label
 _atom_site_symmetry_multiplicity
 _atom_site_fract_x
 _atom_site_fract_y
 _atom_site_fract_z
 _atom_site_fract_occupancy
 Ce  Ce1  1  0.80054  0.80054  0.19946  1
 Ce  Ce2  1  0.19946  0.80054  0.19946  1
 Ce  Ce3  1  0.80054  0.19946  0.19946  1
 Ce  Ce4  1  0.19946  0.19946  0.80054  1
 Ce  Ce5  1  0.80054  0.19946  0.80054  1
 Ce  Ce6  1  0.19946  0.80054  0.80054  1
 Mg  Mg1  1  0.50000  0.50000  0.50000  1
 Mg  Mg2  1  0.16988  0.16988  0.16988  1
 Mg  Mg3  1  0.49037  0.16988  0.16988  1
 Mg  Mg4  1  0.16988  0.49037  0.16988  1
 Mg  Mg5  1  0.50963  0.83012  0.83012  1
 Mg  Mg6  1  0.83012  0.83012  0.83012  1
 Mg  Mg7  1  0.62101  0.13698  0.62101  1
 Mg  Mg8  1  0.83012  0.50963  0.83012  1
 Mg  Mg9  1  0.83012  0.83012  0.50963  1
 Mg  Mg10  1  0.16988  0.16988  0.49037  1
 Mg  Mg11  1  0.62101  0.62101  0.13698  1
 Mg  Mg12  1  0.50000  0.00000  0.00000  1
 Mg  Mg13  1  0.50000  0.00000  0.50000  1
 Mg  Mg14  1  0.13698  0.62101  0.62101  1
 Mg  Mg15  1  -0.00000  0.50000  0.00000  1
 Mg  Mg16  1  0.37899  0.37899  0.86302  1
 Mg  Mg17  1  -0.00000  0.50000  0.50000  1
 Mg  Mg18  1  0.50000  0.50000  0.00000  1
 Mg  Mg19  1  0.00000  0.00000  0.50000  1
 Mg  Mg20  1  0.37899  0.37899  0.37899  1
 Mg  Mg21  1  0.86302  0.37899  0.37899  1
 Mg  Mg22  1  0.37899  0.86302  0.37899  1
 Mg  Mg23  1  0.62101  0.62101  0.62101  1
 P  P1  1  0.00000  0.00000  0.00000  1
