CIF file written using JARVIS-Tools package.
data_LiBrO
_symmetry_space_group_name_H-M  'Pm'
_cell_length_a       6.20374
_cell_length_b       4.58945
_cell_length_c       3.90678
_cell_angle_alpha    90
_cell_angle_beta     90
_cell_angle_gamma    35.3723

_symmetry_Int_Tables_number  6
_chemical_formula_structural  LiBrO
_chemical_formula_sum  LiBrO
_cell_volume  64.39119300269267
_cell_formula_units_Z  1
loop_
  _symmetry_equiv_pos_site_id
 _symmetry_equiv_pos_as_xyz
 1  'x, y, z'
loop_
 _atom_site_type_symbol
 _atom_site_label
 _atom_site_symmetry_multiplicity
 _atom_site_fract_x
 _atom_site_fract_y
 _atom_site_fract_z
 _atom_site_fract_occupancy
 Br  Br1  1  -0.09636  -0.04197  0.00000  1
 Li  Li1  1  0.42339  -0.05468  0.00000  1
 O  O1  1  -0.05500  0.31540  0.00000  1
