CIF file written using JARVIS-Tools package.
data_Li2FeCuP2O8
_symmetry_space_group_name_H-M  'P2_1/m'
_cell_length_a       6.03246
_cell_length_b       4.71626
_cell_length_c       10.1071
_cell_angle_alpha    89.0184
_cell_angle_beta     90
_cell_angle_gamma    90

_symmetry_Int_Tables_number  11
_chemical_formula_structural  Li2FeCuP2O8
_chemical_formula_sum  Li4Fe2Cu2P4O6
_cell_volume  287.5122384089574
_cell_formula_units_Z  2
loop_
  _symmetry_equiv_pos_site_id
 _symmetry_equiv_pos_as_xyz
 1  'x, y, z'
loop_
 _atom_site_type_symbol
 _atom_site_label
 _atom_site_symmetry_multiplicity
 _atom_site_fract_x
 _atom_site_fract_y
 _atom_site_fract_z
 _atom_site_fract_occupancy
 Cu  Cu1  1  0.25000  0.95013  0.71674  1
 Cu  Cu2  1  0.75000  0.04987  0.28326  1
 Fe  Fe1  1  0.75000  0.47841  0.78186  1
 Fe  Fe2  1  0.25000  0.52159  0.21814  1
 Li  Li1  1  0.00000  0.00000  0.00000  1
 Li  Li2  1  0.50000  0.00000  0.00000  1
 Li  Li3  1  0.00000  0.50000  0.50000  1
 Li  Li4  1  0.50000  0.50000  0.50000  1
 O  O1  1  0.25000  0.74904  0.90638  1
 O  O2  1  0.95076  0.77013  0.66743  1
 O  O3  1  0.54924  0.77013  0.66743  1
 O  O4  1  0.75000  0.71180  0.95178  1
 O  O5  1  0.04024  0.29690  0.83683  1
 O  O6  1  0.75000  0.25096  0.09362  1
 O  O7  1  0.25000  0.19945  0.54847  1
 O  O8  1  0.45976  0.29690  0.83683  1
 O  O9  1  0.75000  0.80055  0.45153  1
 O  O10  1  0.54024  0.70310  0.16317  1
 O  O11  1  0.04924  0.22987  0.33257  1
 O  O12  1  0.45076  0.22987  0.33257  1
 O  O13  1  0.75000  0.24064  0.59982  1
 O  O14  1  0.95976  0.70310  0.16317  1
 O  O15  1  0.25000  0.75936  0.40018  1
 O  O16  1  0.25000  0.28820  0.04822  1
 P  P1  1  0.25000  0.42337  0.90554  1
 P  P2  1  0.75000  0.91542  0.59422  1
 P  P3  1  0.25000  0.08458  0.40578  1
 P  P4  1  0.75000  0.57663  0.09446  1
