CIF file written using JARVIS-Tools package.
data_Zr6Ga16Ir7
_symmetry_space_group_name_H-M  'Fm-3m'
_cell_length_a       8.79359
_cell_length_b       8.79359
_cell_length_c       8.79359
_cell_angle_alpha    60
_cell_angle_beta     60
_cell_angle_gamma    60

_symmetry_Int_Tables_number  225
_chemical_formula_structural  Zr6Ga16Ir7
_chemical_formula_sum  Zr6Ga6Ir7
_cell_volume  480.8216313171186
_cell_formula_units_Z  1
loop_
  _symmetry_equiv_pos_site_id
 _symmetry_equiv_pos_as_xyz
 1  'x, y, z'
loop_
 _atom_site_type_symbol
 _atom_site_label
 _atom_site_symmetry_multiplicity
 _atom_site_fract_x
 _atom_site_fract_y
 _atom_site_fract_z
 _atom_site_fract_occupancy
 Ga  Ga1  1  0.63256  0.12248  0.12248  1
 Ga  Ga2  1  0.36744  0.87752  0.87752  1
 Ga  Ga3  1  0.87752  0.87752  0.87752  1
 Ga  Ga4  1  0.12248  0.12248  0.63256  1
 Ga  Ga5  1  0.12248  0.63256  0.12248  1
 Ga  Ga6  1  0.12248  0.12248  0.12248  1
 Ga  Ga7  1  0.65421  0.65421  0.03736  1
 Ga  Ga8  1  0.65421  0.03736  0.65421  1
 Ga  Ga9  1  0.03736  0.65421  0.65421  1
 Ga  Ga10  1  0.87752  0.36744  0.87752  1
 Ga  Ga11  1  0.65421  0.65421  0.65421  1
 Ga  Ga12  1  0.34579  0.96264  0.34579  1
 Ga  Ga13  1  0.96264  0.34579  0.34579  1
 Ga  Ga14  1  0.34579  0.34579  0.34579  1
 Ga  Ga15  1  0.34579  0.34579  0.96264  1
 Ga  Ga16  1  0.87752  0.87752  0.36744  1
 Ir  Ir1  1  -0.00000  0.50000  0.00000  1
 Ir  Ir2  1  0.00000  0.00000  0.00000  1
 Ir  Ir3  1  0.00000  0.00000  0.50000  1
 Ir  Ir4  1  0.50000  0.00000  0.50000  1
 Ir  Ir5  1  -0.00000  0.50000  0.50000  1
 Ir  Ir6  1  0.50000  0.00000  0.00000  1
 Ir  Ir7  1  0.50000  0.50000  0.00000  1
 Zr  Zr1  1  0.30412  0.69588  0.69588  1
 Zr  Zr2  1  0.69588  0.30412  0.69588  1
 Zr  Zr3  1  0.30412  0.30412  0.69588  1
 Zr  Zr4  1  0.69588  0.30412  0.30412  1
 Zr  Zr5  1  0.30412  0.69588  0.30412  1
 Zr  Zr6  1  0.69588  0.69588  0.30412  1
