CIF file written using JARVIS-Tools package.
data_Fe2OF3
_symmetry_space_group_name_H-M  'Amm2'
_cell_length_a       4.78106
_cell_length_b       4.78106
_cell_length_c       6.21298
_cell_angle_alpha    90.0009
_cell_angle_beta     89.9992
_cell_angle_gamma    87.0865

_symmetry_Int_Tables_number  38
_chemical_formula_structural  Fe2OF3
_chemical_formula_sum  Fe4O2F6
_cell_volume  141.83648621272127
_cell_formula_units_Z  2
loop_
  _symmetry_equiv_pos_site_id
 _symmetry_equiv_pos_as_xyz
 1  'x, y, z'
loop_
 _atom_site_type_symbol
 _atom_site_label
 _atom_site_symmetry_multiplicity
 _atom_site_fract_x
 _atom_site_fract_y
 _atom_site_fract_z
 _atom_site_fract_occupancy
 F  F1  1  0.79457  0.20543  0.25002  1
 F  F2  1  0.79457  0.20543  0.75002  1
 F  F3  1  0.30204  0.29861  0.00000  1
 F  F4  1  0.30206  0.29859  0.50000  1
 F  F5  1  0.70140  0.69796  0.00000  1
 F  F6  1  0.70141  0.69794  0.50000  1
 Fe  Fe1  1  0.02303  0.97697  0.49999  1
 Fe  Fe2  1  0.48428  0.51572  0.75000  1
 Fe  Fe3  1  0.02304  0.97697  -0.00001  1
 Fe  Fe4  1  0.48428  0.51572  0.25000  1
 O  O1  1  0.19467  0.80533  0.24998  1
 O  O2  1  0.19467  0.80533  0.74998  1
