CIF file written using JARVIS-Tools package.
data_CaMn28
_symmetry_space_group_name_H-M  'I-43m'
_cell_length_a       7.48276
_cell_length_b       7.48275
_cell_length_c       7.48275
_cell_angle_alpha    109.471
_cell_angle_beta     109.471
_cell_angle_gamma    109.471

_symmetry_Int_Tables_number  217
_chemical_formula_structural  CaMn28
_chemical_formula_sum  CaMn28
_cell_volume  322.5243469037807
_cell_formula_units_Z  1
loop_
  _symmetry_equiv_pos_site_id
 _symmetry_equiv_pos_as_xyz
 1  'x, y, z'
loop_
 _atom_site_type_symbol
 _atom_site_label
 _atom_site_symmetry_multiplicity
 _atom_site_fract_x
 _atom_site_fract_y
 _atom_site_fract_z
 _atom_site_fract_occupancy
 Ca  Ca1  1  0.00000  0.00000  0.00000  1
 Mn  Mn1  1  0.62200  0.00000  0.00000  1
 Mn  Mn2  1  0.00000  0.62200  0.00000  1
 Mn  Mn3  1  0.00000  0.00000  0.62200  1
 Mn  Mn4  1  0.37800  0.37800  0.37800  1
 Mn  Mn5  1  0.39415  0.68167  -0.00000  1
 Mn  Mn6  1  0.71248  0.31833  0.31833  1
 Mn  Mn7  1  0.39415  -0.00000  0.68167  1
 Mn  Mn8  1  0.68167  0.39415  -0.00000  1
 Mn  Mn9  1  -0.00000  0.39415  0.68167  1
 Mn  Mn10  1  0.31833  0.71248  0.31833  1
 Mn  Mn11  1  0.31833  0.31833  0.71248  1
 Mn  Mn12  1  -0.00000  0.68167  0.39415  1
 Mn  Mn13  1  0.68167  -0.00000  0.39415  1
 Mn  Mn14  1  0.60585  0.60585  0.28752  1
 Mn  Mn15  1  0.28752  0.60585  0.60585  1
 Mn  Mn16  1  0.60585  0.28752  0.60585  1
 Mn  Mn17  1  0.37858  0.19982  0.00000  1
 Mn  Mn18  1  0.17876  0.80018  0.80018  1
 Mn  Mn19  1  0.37858  0.00000  0.19982  1
 Mn  Mn20  1  0.19982  0.37858  0.00000  1
 Mn  Mn21  1  0.00000  0.37858  0.19982  1
 Mn  Mn22  1  0.80018  0.17876  0.80018  1
 Mn  Mn23  1  0.80018  0.80018  0.17876  1
 Mn  Mn24  1  0.00000  0.19982  0.37858  1
 Mn  Mn25  1  0.19982  0.00000  0.37858  1
 Mn  Mn26  1  0.62142  0.62142  0.82124  1
 Mn  Mn27  1  0.82124  0.62142  0.62142  1
 Mn  Mn28  1  0.62142  0.82124  0.62142  1
