CIF file written using JARVIS-Tools package.
data_NdPOs2C
_symmetry_space_group_name_H-M  'Cmcm'
_cell_length_a       5.89414
_cell_length_b       5.89414
_cell_length_c       7.15618
_cell_angle_alpha    90
_cell_angle_beta     90
_cell_angle_gamma    140.884

_symmetry_Int_Tables_number  63
_chemical_formula_structural  NdPOs2C
_chemical_formula_sum  Nd2P2Os4C2
_cell_volume  156.84886064437984
_cell_formula_units_Z  2
loop_
  _symmetry_equiv_pos_site_id
 _symmetry_equiv_pos_as_xyz
 1  'x, y, z'
loop_
 _atom_site_type_symbol
 _atom_site_label
 _atom_site_symmetry_multiplicity
 _atom_site_fract_x
 _atom_site_fract_y
 _atom_site_fract_z
 _atom_site_fract_occupancy
 C  C1  1  0.00000  0.00000  0.00000  1
 C  C2  1  0.00000  0.00000  0.50000  1
 Nd  Nd1  1  0.54565  0.45435  0.25000  1
 Nd  Nd2  1  0.45435  0.54565  0.75000  1
 Os  Os1  1  0.83279  0.16721  0.05312  1
 Os  Os2  1  0.16721  0.83279  0.94688  1
 Os  Os3  1  0.16721  0.83279  0.55312  1
 Os  Os4  1  0.83279  0.16721  0.44688  1
 P  P1  1  0.27021  0.72979  0.25000  1
 P  P2  1  0.72979  0.27021  0.75000  1
