CIF file written using JARVIS-Tools package.
data_RbPdBr
_symmetry_space_group_name_H-M  'Amm2'
_cell_length_a       4.7826
_cell_length_b       6.21656
_cell_length_c       3.88227
_cell_angle_alpha    90
_cell_angle_beta     90
_cell_angle_gamma    112.556

_symmetry_Int_Tables_number  38
_chemical_formula_structural  RbPdBr
_chemical_formula_sum  RbPdBr
_cell_volume  106.59583642165235
_cell_formula_units_Z  1
loop_
  _symmetry_equiv_pos_site_id
 _symmetry_equiv_pos_as_xyz
 1  'x, y, z'
loop_
 _atom_site_type_symbol
 _atom_site_label
 _atom_site_symmetry_multiplicity
 _atom_site_fract_x
 _atom_site_fract_y
 _atom_site_fract_z
 _atom_site_fract_occupancy
 Br  Br1  1  -0.16377  -0.10919  0.00000  1
 Pd  Pd1  1  0.39913  0.01693  0.00000  1
 Rb  Rb1  1  0.12101  0.45934  0.00000  1
