CIF file written using JARVIS-Tools package.
data_FePO4
_symmetry_space_group_name_H-M  'I-4'
_cell_length_a       5.20715
_cell_length_b       8.71716
_cell_length_c       8.71599
_cell_angle_alpha    101.314
_cell_angle_beta     77.8896
_cell_angle_gamma    86.6031

_symmetry_Int_Tables_number  82
_chemical_formula_structural  FePO4
_chemical_formula_sum  Fe4P4O6
_cell_volume  377.22322572471165
_cell_formula_units_Z  4
loop_
  _symmetry_equiv_pos_site_id
 _symmetry_equiv_pos_as_xyz
 1  'x, y, z'
loop_
 _atom_site_type_symbol
 _atom_site_label
 _atom_site_symmetry_multiplicity
 _atom_site_fract_x
 _atom_site_fract_y
 _atom_site_fract_z
 _atom_site_fract_occupancy
 Fe  Fe1  1  0.50003  0.50003  0.00000  1
 Fe  Fe2  1  0.74999  0.74998  0.49999  1
 Fe  Fe3  1  0.00004  0.00003  0.00000  1
 Fe  Fe4  1  0.24999  0.24998  0.49999  1
 O  O1  1  0.09567  0.67747  0.50051  1
 O  O2  1  0.34574  0.92756  0.00050  1
 O  O3  1  0.59567  0.17747  0.50051  1
 O  O4  1  0.83128  0.10500  0.20909  1
 O  O5  1  0.24520  0.39064  0.36315  1
 O  O6  1  0.49518  0.64071  0.86320  1
 O  O7  1  0.84573  0.42756  0.00050  1
 O  O8  1  -0.00482  0.14071  0.86320  1
 O  O9  1  0.57779  0.57676  0.42726  1
 O  O10  1  0.07779  0.07676  0.42726  1
 O  O11  1  0.74520  0.89064  0.36315  1
 O  O12  1  0.32785  0.32682  0.92722  1
 O  O13  1  0.33127  0.60501  0.20909  1
 O  O14  1  0.58128  0.85502  0.70907  1
 O  O15  1  0.82785  0.82682  0.92722  1
 O  O16  1  0.08128  0.35502  0.70907  1
 P  P1  1  0.06251  0.31252  0.87500  1
 P  P2  1  0.81249  0.06247  0.37500  1
 P  P3  1  0.56252  0.81253  0.87500  1
 P  P4  1  0.31248  0.56247  0.37500  1
