CIF file written using JARVIS-Tools package.
data_Yb3Co8Sn4
_symmetry_space_group_name_H-M  'P6_3mc'
_cell_length_a       7.51356
_cell_length_b       8.81503
_cell_length_c       8.81503
_cell_angle_alpha    120
_cell_angle_beta     90
_cell_angle_gamma    90

_symmetry_Int_Tables_number  186
_chemical_formula_structural  Yb3Co8Sn4
_chemical_formula_sum  Yb6Co6Sn8
_cell_volume  505.6196832964794
_cell_formula_units_Z  2
loop_
  _symmetry_equiv_pos_site_id
 _symmetry_equiv_pos_as_xyz
 1  'x, y, z'
loop_
 _atom_site_type_symbol
 _atom_site_label
 _atom_site_symmetry_multiplicity
 _atom_site_fract_x
 _atom_site_fract_y
 _atom_site_fract_z
 _atom_site_fract_occupancy
 Co  Co1  1  0.75030  0.09637  0.19274  1
 Co  Co2  1  0.94326  0.84176  0.15824  1
 Co  Co3  1  0.44326  0.15824  0.31648  1
 Co  Co4  1  0.94326  0.31648  0.15824  1
 Co  Co5  1  0.44326  0.15824  0.84176  1
 Co  Co6  1  0.44326  0.68352  0.84176  1
 Co  Co7  1  0.25030  0.90363  0.80726  1
 Co  Co8  1  0.75030  0.80726  0.90363  1
 Co  Co9  1  0.25030  0.90363  0.09637  1
 Co  Co10  1  0.94326  0.84176  0.68352  1
 Co  Co11  1  0.25030  0.19274  0.09637  1
 Co  Co12  1  0.12974  0.33333  0.66667  1
 Co  Co13  1  0.99790  0.00000  0.00000  1
 Co  Co14  1  0.49790  0.00000  0.00000  1
 Co  Co15  1  0.62974  0.66667  0.33333  1
 Co  Co16  1  0.75030  0.09637  0.90363  1
 Sn  Sn1  1  0.97033  0.66667  0.33333  1
 Sn  Sn2  1  0.56889  0.82723  0.65446  1
 Sn  Sn3  1  0.56889  0.82723  0.17277  1
 Sn  Sn4  1  0.06889  0.17277  0.34554  1
 Sn  Sn5  1  0.56889  0.34554  0.17277  1
 Sn  Sn6  1  0.06889  0.17277  0.82723  1
 Sn  Sn7  1  0.47033  0.33333  0.66667  1
 Sn  Sn8  1  0.06889  0.65446  0.82723  1
 Yb  Yb1  1  0.28135  0.94996  0.47498  1
 Yb  Yb2  1  0.28135  0.52502  0.47498  1
 Yb  Yb3  1  0.78135  0.05004  0.52502  1
 Yb  Yb4  1  0.28135  0.52502  0.05004  1
 Yb  Yb5  1  0.78135  0.47498  0.52502  1
 Yb  Yb6  1  0.78135  0.47498  0.94996  1
