CIF file written using JARVIS-Tools package.
data_Na3Co4O8
_symmetry_space_group_name_H-M  'Pmmn'
_cell_length_a       2.8779
_cell_length_b       9.79997
_cell_length_c       10.747
_cell_angle_alpha    90
_cell_angle_beta     90
_cell_angle_gamma    90

_symmetry_Int_Tables_number  59
_chemical_formula_structural  Na3Co4O8
_chemical_formula_sum  Na6Co8O6
_cell_volume  303.1030186663871
_cell_formula_units_Z  2
loop_
  _symmetry_equiv_pos_site_id
 _symmetry_equiv_pos_as_xyz
 1  'x, y, z'
loop_
 _atom_site_type_symbol
 _atom_site_label
 _atom_site_symmetry_multiplicity
 _atom_site_fract_x
 _atom_site_fract_y
 _atom_site_fract_z
 _atom_site_fract_occupancy
 Co  Co1  1  0.00000  0.37619  0.75565  1
 Co  Co2  1  0.00000  0.37619  0.24435  1
 Co  Co3  1  0.00000  0.87424  0.74679  1
 Co  Co4  1  0.00000  0.87424  0.25321  1
 Co  Co5  1  0.50000  0.62381  0.74435  1
 Co  Co6  1  0.50000  0.62381  0.25565  1
 Co  Co7  1  0.50000  0.12576  0.75321  1
 Co  Co8  1  0.50000  0.12576  0.24679  1
 Na  Na1  1  0.00000  0.35327  0.50000  1
 Na  Na2  1  0.50000  0.99322  0.50000  1
 Na  Na3  1  0.50000  0.64673  0.00000  1
 Na  Na4  1  0.00000  0.00678  0.00000  1
 Na  Na5  1  0.00000  0.69579  0.50000  1
 Na  Na6  1  0.50000  0.30421  0.00000  1
 O  O1  1  0.00000  0.04535  0.66104  1
 O  O2  1  0.50000  0.46279  0.15683  1
 O  O3  1  0.00000  0.20651  0.84886  1
 O  O4  1  0.00000  0.70699  0.16514  1
 O  O5  1  0.00000  0.53721  0.65683  1
 O  O6  1  0.00000  0.20651  0.15114  1
 O  O7  1  0.00000  0.70699  0.83486  1
 O  O8  1  0.50000  0.46279  0.84317  1
 O  O9  1  0.50000  0.95465  0.83896  1
 O  O10  1  0.50000  0.79349  0.65114  1
 O  O11  1  0.50000  0.29301  0.66514  1
 O  O12  1  0.50000  0.95465  0.16104  1
 O  O13  1  0.50000  0.79349  0.34886  1
 O  O14  1  0.00000  0.53721  0.34317  1
 O  O15  1  0.00000  0.04535  0.33896  1
 O  O16  1  0.50000  0.29301  0.33486  1
