CIF file written using JARVIS-Tools package.
data_Y4MgRh
_symmetry_space_group_name_H-M  'F-43m'
_cell_length_a       9.67666
_cell_length_b       9.67666
_cell_length_c       9.67666
_cell_angle_alpha    60
_cell_angle_beta     60
_cell_angle_gamma    60

_symmetry_Int_Tables_number  216
_chemical_formula_structural  Y4MgRh
_chemical_formula_sum  Y6Mg4Rh4
_cell_volume  640.7102682037134
_cell_formula_units_Z  4
loop_
  _symmetry_equiv_pos_site_id
 _symmetry_equiv_pos_as_xyz
 1  'x, y, z'
loop_
 _atom_site_type_symbol
 _atom_site_label
 _atom_site_symmetry_multiplicity
 _atom_site_fract_x
 _atom_site_fract_y
 _atom_site_fract_z
 _atom_site_fract_occupancy
 Mg  Mg1  1  0.51078  0.82974  0.82974  1
 Mg  Mg2  1  0.82974  0.51078  0.82974  1
 Mg  Mg3  1  0.82974  0.82974  0.51078  1
 Mg  Mg4  1  0.82974  0.82974  0.82974  1
 Rh  Rh1  1  0.82509  0.39164  0.39164  1
 Rh  Rh2  1  0.39164  0.39164  0.39164  1
 Rh  Rh3  1  0.39164  0.82509  0.39164  1
 Rh  Rh4  1  0.39164  0.39164  0.82509  1
 Y  Y1  1  0.06212  0.43788  0.06212  1
 Y  Y2  1  0.59694  0.59694  0.20919  1
 Y  Y3  1  0.59694  0.20919  0.59694  1
 Y  Y4  1  0.20919  0.59694  0.59694  1
 Y  Y5  1  0.59694  0.59694  0.59694  1
 Y  Y6  1  0.43788  0.06212  0.43788  1
 Y  Y7  1  0.81482  0.18518  0.18518  1
 Y  Y8  1  0.43788  0.43788  0.06212  1
 Y  Y9  1  0.06212  0.06212  0.43788  1
 Y  Y10  1  0.18518  0.81482  0.81482  1
 Y  Y11  1  0.81482  0.18518  0.81482  1
 Y  Y12  1  0.18518  0.81482  0.18518  1
 Y  Y13  1  0.81482  0.81482  0.18518  1
 Y  Y14  1  0.18518  0.18518  0.81482  1
 Y  Y15  1  0.43788  0.06212  0.06212  1
 Y  Y16  1  0.06212  0.43788  0.43788  1
