CIF file written using JARVIS-Tools package.
data_PuUSn6
_symmetry_space_group_name_H-M  'P4/mmm'
_cell_length_a       4.63014
_cell_length_b       4.63014
_cell_length_c       9.22101
_cell_angle_alpha    90
_cell_angle_beta     90
_cell_angle_gamma    90

_symmetry_Int_Tables_number  123
_chemical_formula_structural  PuUSn6
_chemical_formula_sum  PuUSn6
_cell_volume  197.68227383896374
_cell_formula_units_Z  1
loop_
  _symmetry_equiv_pos_site_id
 _symmetry_equiv_pos_as_xyz
 1  'x, y, z'
loop_
 _atom_site_type_symbol
 _atom_site_label
 _atom_site_symmetry_multiplicity
 _atom_site_fract_x
 _atom_site_fract_y
 _atom_site_fract_z
 _atom_site_fract_occupancy
 Pu  Pu1  1  0.00000  0.00000  0.00000  1
 Sn  Sn1  1  0.50000  0.50000  0.00000  1
 Sn  Sn2  1  0.50000  0.50000  0.50000  1
 Sn  Sn3  1  0.50000  0.00000  0.24788  1
 Sn  Sn4  1  0.50000  0.00000  0.75212  1
 Sn  Sn5  1  0.00000  0.50000  0.24788  1
 Sn  Sn6  1  0.00000  0.50000  0.75212  1
 U  U1  1  0.00000  0.00000  0.50000  1
