CIF file written using JARVIS-Tools package.
data_Li3Co5OF11
_symmetry_space_group_name_H-M  'P1'
_cell_length_a       5.13254
_cell_length_b       5.60527
_cell_length_c       8.91297
_cell_angle_alpha    83.6784
_cell_angle_beta     73.6926
_cell_angle_gamma    116.96

_symmetry_Int_Tables_number  1
_chemical_formula_structural  Li3Co5OF11
_chemical_formula_sum  Li3Co5OF
_cell_volume  210.73986686270172
_cell_formula_units_Z  1
loop_
  _symmetry_equiv_pos_site_id
 _symmetry_equiv_pos_as_xyz
 1  'x, y, z'
loop_
 _atom_site_type_symbol
 _atom_site_label
 _atom_site_symmetry_multiplicity
 _atom_site_fract_x
 _atom_site_fract_y
 _atom_site_fract_z
 _atom_site_fract_occupancy
 Co  Co1  1  0.35887  0.87261  0.16250  1
 Co  Co2  1  0.33556  0.35866  0.65860  1
 Co  Co3  1  0.62605  0.61323  0.33981  1
 Co  Co4  1  0.65312  0.13638  0.83852  1
 Co  Co5  1  0.87650  0.12762  0.42409  1
 F  F1  1  0.55801  0.11295  0.62904  1
 F  F2  1  0.94712  0.48291  0.28119  1
 F  F3  1  0.05076  0.52769  0.72404  1
 F  F4  1  0.44964  0.89371  0.37526  1
 F  F5  1  0.55757  0.62457  0.12349  1
 F  F6  1  0.05344  0.02676  0.21074  1
 F  F7  1  0.75651  0.23842  0.03752  1
 F  F8  1  0.93204  0.96488  0.78806  1
 F  F9  1  0.42617  0.36297  0.86752  1
 F  F10  1  0.24766  0.77287  0.96576  1
 F  F11  1  0.76650  0.72055  0.53420  1
 Li  Li1  1  0.85906  0.64124  0.93004  1
 Li  Li2  1  0.14450  0.85942  0.58205  1
 Li  Li3  1  0.16131  0.37371  0.05803  1
 O  O1  1  0.23961  0.28885  0.46955  1
