CIF file written using JARVIS-Tools package.
data_Tm5In4
_symmetry_space_group_name_H-M  'P6_3/mcm'
_cell_length_a       9.13497
_cell_length_b       9.13498
_cell_length_c       6.52654
_cell_angle_alpha    90
_cell_angle_beta     90
_cell_angle_gamma    120

_symmetry_Int_Tables_number  193
_chemical_formula_structural  Tm5In4
_chemical_formula_sum  Tm0In8
_cell_volume  471.65871010579656
_cell_formula_units_Z  2
loop_
  _symmetry_equiv_pos_site_id
 _symmetry_equiv_pos_as_xyz
 1  'x, y, z'
loop_
 _atom_site_type_symbol
 _atom_site_label
 _atom_site_symmetry_multiplicity
 _atom_site_fract_x
 _atom_site_fract_y
 _atom_site_fract_z
 _atom_site_fract_occupancy
 In  In1  1  0.62756  0.62756  0.25000  1
 In  In2  1  0.00000  0.62756  0.75000  1
 In  In3  1  0.37244  -0.00000  0.25000  1
 In  In4  1  0.62756  0.00000  0.75000  1
 In  In5  1  0.00000  0.00000  0.00000  1
 In  In6  1  0.00000  0.00000  0.50000  1
 In  In7  1  0.37244  0.37244  0.75000  1
 In  In8  1  -0.00000  0.37244  0.25000  1
 Tm  Tm1  1  0.29066  -0.00000  0.75000  1
 Tm  Tm2  1  0.33333  0.66667  0.50000  1
 Tm  Tm3  1  0.33333  0.66667  0.00000  1
 Tm  Tm4  1  0.70934  0.70934  0.75000  1
 Tm  Tm5  1  0.70934  0.00000  0.25000  1
 Tm  Tm6  1  -0.00000  0.29066  0.75000  1
 Tm  Tm7  1  0.00000  0.70934  0.25000  1
 Tm  Tm8  1  0.29066  0.29066  0.25000  1
 Tm  Tm9  1  0.66667  0.33333  0.00000  1
 Tm  Tm10  1  0.66667  0.33333  0.50000  1
