CIF file written using JARVIS-Tools package.
data_PmS
_symmetry_space_group_name_H-M  'I4/mmm'
_cell_length_a       7.37963
_cell_length_b       7.37962
_cell_length_c       7.37962
_cell_angle_alpha    148.872
_cell_angle_beta     148.872
_cell_angle_gamma    44.6001

_symmetry_Int_Tables_number  139
_chemical_formula_structural  PmS
_chemical_formula_sum  Pm2S2
_cell_volume  107.07716432703795
_cell_formula_units_Z  2
loop_
  _symmetry_equiv_pos_site_id
 _symmetry_equiv_pos_as_xyz
 1  'x, y, z'
loop_
 _atom_site_type_symbol
 _atom_site_label
 _atom_site_symmetry_multiplicity
 _atom_site_fract_x
 _atom_site_fract_y
 _atom_site_fract_z
 _atom_site_fract_occupancy
 Pm  Pm1  1  0.34443  0.34443  0.00000  1
 Pm  Pm2  1  0.65557  0.65557  -0.00000  1
 S  S1  1  0.13682  0.13682  -0.00000  1
 S  S2  1  0.86318  0.86318  0.00000  1
