CIF file written using JARVIS-Tools package.
data_Ag2SnBiSe4
_symmetry_space_group_name_H-M  'R3m'
_cell_length_a       13.6514
_cell_length_b       13.6514
_cell_length_c       13.6514
_cell_angle_alpha    17.4161
_cell_angle_beta     17.4161
_cell_angle_gamma    17.4161

_symmetry_Int_Tables_number  160
_chemical_formula_structural  Ag2SnBiSe4
_chemical_formula_sum  Ag2SnBiSe4
_cell_volume  198.89812475435448
_cell_formula_units_Z  1
loop_
  _symmetry_equiv_pos_site_id
 _symmetry_equiv_pos_as_xyz
 1  'x, y, z'
loop_
 _atom_site_type_symbol
 _atom_site_label
 _atom_site_symmetry_multiplicity
 _atom_site_fract_x
 _atom_site_fract_y
 _atom_site_fract_z
 _atom_site_fract_occupancy
 Ag  Ag1  1  0.50674  0.50674  0.50674  1
 Ag  Ag2  1  0.24206  0.24206  0.24206  1
 Bi  Bi1  1  0.99536  0.99536  0.99536  1
 Se  Se1  1  0.87475  0.87475  0.87475  1
 Se  Se2  1  0.61889  0.61889  0.61889  1
 Se  Se3  1  0.37428  0.37428  0.37428  1
 Se  Se4  1  0.13053  0.13053  0.13053  1
 Sn  Sn1  1  0.75740  0.75740  0.75740  1
