CIF file written using JARVIS-Tools package.
data_Li4Cr3Sn3Te2O16
_symmetry_space_group_name_H-M  'Cm'
_cell_length_a       6.19196
_cell_length_b       6.19195
_cell_length_c       10.0522
_cell_angle_alpha    89.8074
_cell_angle_beta     89.8074
_cell_angle_gamma    60.5607

_symmetry_Int_Tables_number  8
_chemical_formula_structural  Li4Cr3Sn3Te2O16
_chemical_formula_sum  Li4Cr3Sn3Te2O6
_cell_volume  335.6372358277534
_cell_formula_units_Z  1
loop_
  _symmetry_equiv_pos_site_id
 _symmetry_equiv_pos_as_xyz
 1  'x, y, z'
loop_
 _atom_site_type_symbol
 _atom_site_label
 _atom_site_symmetry_multiplicity
 _atom_site_fract_x
 _atom_site_fract_y
 _atom_site_fract_z
 _atom_site_fract_occupancy
 Cr  Cr1  1  0.83108  0.83108  0.78605  1
 Cr  Cr2  1  0.17001  0.66588  0.28734  1
 Cr  Cr3  1  0.66588  0.17001  0.28734  1
 Li  Li1  1  0.67382  0.67382  0.10289  1
 Li  Li2  1  0.98862  0.98862  0.01138  1
 Li  Li3  1  0.99292  0.99292  0.50203  1
 Li  Li4  1  0.33526  0.33526  0.59564  1
 O  O1  1  0.30619  0.84271  0.39893  1
 O  O2  1  0.48377  0.48377  0.16783  1
 O  O3  1  0.66963  0.66963  0.89420  1
 O  O4  1  0.99263  0.99263  0.68250  1
 O  O5  1  0.99469  0.99469  0.19204  1
 O  O6  1  0.84271  0.30619  0.39893  1
 O  O7  1  0.50874  0.50874  0.66806  1
 O  O8  1  0.96485  0.52474  0.66230  1
 O  O9  1  0.84225  0.84225  0.39779  1
 O  O10  1  0.13914  0.69621  0.89949  1
 O  O11  1  0.49345  0.03834  0.16417  1
 O  O12  1  0.33955  0.33955  0.38918  1
 O  O13  1  0.52474  0.96485  0.66230  1
 O  O14  1  0.15046  0.15046  0.90124  1
 O  O15  1  0.03834  0.49345  0.16417  1
 O  O16  1  0.69621  0.13914  0.89949  1
 Sn  Sn1  1  0.33336  0.83130  0.78523  1
 Sn  Sn2  1  0.16938  0.16938  0.28554  1
 Sn  Sn3  1  0.83130  0.33336  0.78523  1
 Te  Te1  1  0.34519  0.34519  0.01790  1
 Te  Te2  1  0.67613  0.67613  0.50292  1
