CIF file written using JARVIS-Tools package.
data_SrNiF4
_symmetry_space_group_name_H-M  'Cmc2_1'
_cell_length_a       7.41365
_cell_length_b       7.41366
_cell_length_c       5.60942
_cell_angle_alpha    90
_cell_angle_beta     90
_cell_angle_gamma    148.451

_symmetry_Int_Tables_number  36
_chemical_formula_structural  SrNiF4
_chemical_formula_sum  Sr2Ni2F8
_cell_volume  161.31364382947055
_cell_formula_units_Z  2
loop_
  _symmetry_equiv_pos_site_id
 _symmetry_equiv_pos_as_xyz
 1  'x, y, z'
loop_
 _atom_site_type_symbol
 _atom_site_label
 _atom_site_symmetry_multiplicity
 _atom_site_fract_x
 _atom_site_fract_y
 _atom_site_fract_z
 _atom_site_fract_occupancy
 F  F1  1  0.83489  0.16511  0.88785  1
 F  F2  1  0.16511  0.83489  0.38785  1
 F  F3  1  0.96415  0.03585  0.51897  1
 F  F4  1  0.03585  0.96415  0.01897  1
 F  F5  1  0.41918  0.58082  0.19877  1
 F  F6  1  0.58082  0.41918  0.69877  1
 F  F7  1  0.79492  0.20508  0.37578  1
 F  F8  1  0.20508  0.79492  0.87578  1
 Ni  Ni1  1  0.91245  0.08755  0.17752  1
 Ni  Ni2  1  0.08755  0.91245  0.67752  1
 Sr  Sr1  1  0.65296  0.34704  0.12500  1
 Sr  Sr2  1  0.34704  0.65296  0.62500  1
