CIF file written using JARVIS-Tools package.
data_Cd5Te4S
_symmetry_space_group_name_H-M  'R3m'
_cell_length_a       18.8552
_cell_length_b       18.8552
_cell_length_c       18.8552
_cell_angle_alpha    13.9151
_cell_angle_beta     13.9152
_cell_angle_gamma    13.9151

_symmetry_Int_Tables_number  160
_chemical_formula_structural  Cd5Te4S
_chemical_formula_sum  Cd5Te4S
_cell_volume  337.38723222721694
_cell_formula_units_Z  1
loop_
  _symmetry_equiv_pos_site_id
 _symmetry_equiv_pos_as_xyz
 1  'x, y, z'
loop_
 _atom_site_type_symbol
 _atom_site_label
 _atom_site_symmetry_multiplicity
 _atom_site_fract_x
 _atom_site_fract_y
 _atom_site_fract_z
 _atom_site_fract_occupancy
 Cd  Cd1  1  0.99496  0.99496  0.99496  1
 Cd  Cd2  1  0.60492  0.60492  0.60492  1
 Cd  Cd3  1  0.20238  0.20238  0.20238  1
 Cd  Cd4  1  0.79990  0.79990  0.79990  1
 Cd  Cd5  1  0.39740  0.39740  0.39740  1
 S  S1  1  0.94916  0.94916  0.94916  1
 Te  Te1  1  0.55392  0.55392  0.55392  1
 Te  Te2  1  0.15159  0.15159  0.15159  1
 Te  Te3  1  0.74912  0.74912  0.74912  1
 Te  Te4  1  0.34665  0.34665  0.34665  1
