CIF file written using JARVIS-Tools package.
data_CaV2O6
_symmetry_space_group_name_H-M  'C2/m'
_cell_length_a       3.6472
_cell_length_b       5.2119
_cell_length_c       7.19516
_cell_angle_alpha    104.698
_cell_angle_beta     90
_cell_angle_gamma    110.481

_symmetry_Int_Tables_number  12
_chemical_formula_structural  CaV2O6
_chemical_formula_sum  CaV2O6
_cell_volume  123.33742217355511
_cell_formula_units_Z  1
loop_
  _symmetry_equiv_pos_site_id
 _symmetry_equiv_pos_as_xyz
 1  'x, y, z'
loop_
 _atom_site_type_symbol
 _atom_site_label
 _atom_site_symmetry_multiplicity
 _atom_site_fract_x
 _atom_site_fract_y
 _atom_site_fract_z
 _atom_site_fract_occupancy
 Ca  Ca1  1  0.00000  0.00000  0.00000  1
 O  O1  1  0.73442  0.46885  0.59413  1
 O  O2  1  0.26558  0.53115  0.40587  1
 O  O3  1  0.34936  0.69872  0.87801  1
 O  O4  1  0.06549  0.13098  0.71369  1
 O  O5  1  0.65064  0.30128  0.12199  1
 O  O6  1  0.93451  0.86902  0.28631  1
 V  V1  1  0.22143  0.44286  0.66438  1
 V  V2  1  0.77857  0.55714  0.33562  1
