CIF file written using JARVIS-Tools package.
data_ErNiSn4
_symmetry_space_group_name_H-M  'Cmmm'
_cell_length_a       14.4218
_cell_length_b       14.4218
_cell_length_c       4.45357
_cell_angle_alpha    90
_cell_angle_beta     90
_cell_angle_gamma    162.395

_symmetry_Int_Tables_number  65
_chemical_formula_structural  ErNiSn4
_chemical_formula_sum  Er2Ni2Sn8
_cell_volume  280.1666430219482
_cell_formula_units_Z  2
loop_
  _symmetry_equiv_pos_site_id
 _symmetry_equiv_pos_as_xyz
 1  'x, y, z'
loop_
 _atom_site_type_symbol
 _atom_site_label
 _atom_site_symmetry_multiplicity
 _atom_site_fract_x
 _atom_site_fract_y
 _atom_site_fract_z
 _atom_site_fract_occupancy
 Er  Er1  1  0.80642  0.19358  0.50000  1
 Er  Er2  1  0.19358  0.80642  0.50000  1
 Ni  Ni1  1  0.55303  0.44697  0.00000  1
 Ni  Ni2  1  0.44697  0.55303  0.00000  1
 Sn  Sn1  1  0.60992  0.39008  0.50000  1
 Sn  Sn2  1  0.39008  0.60992  0.50000  1
 Sn  Sn3  1  0.71417  0.28583  0.00000  1
 Sn  Sn4  1  0.28583  0.71417  0.00000  1
 Sn  Sn5  1  0.88970  0.11030  0.00000  1
 Sn  Sn6  1  0.11030  0.88970  0.00000  1
 Sn  Sn7  1  0.00000  0.00000  0.00000  1
 Sn  Sn8  1  0.50000  0.50000  0.50000  1
