CIF file written using JARVIS-Tools package.
data_Co2CuN2
_symmetry_space_group_name_H-M  'R-3m'
_cell_length_a       3.1989
_cell_length_b       3.20023
_cell_length_c       7.05869
_cell_angle_alpha    90
_cell_angle_beta     116.917
_cell_angle_gamma    120.014

_symmetry_Int_Tables_number  166
_chemical_formula_structural  Co2CuN2
_chemical_formula_sum  Co2CuN2
_cell_volume  53.338992162656645
_cell_formula_units_Z  1
loop_
  _symmetry_equiv_pos_site_id
 _symmetry_equiv_pos_as_xyz
 1  'x, y, z'
loop_
 _atom_site_type_symbol
 _atom_site_label
 _atom_site_symmetry_multiplicity
 _atom_site_fract_x
 _atom_site_fract_y
 _atom_site_fract_z
 _atom_site_fract_occupancy
 Co  Co1  1  0.84769  0.42385  0.13598  1
 Co  Co2  1  0.15231  0.57615  0.86402  1
 Cu  Cu1  1  0.00000  0.00000  0.50000  1
 N  N1  1  0.41269  0.20635  0.80941  1
 N  N2  1  0.58731  0.79365  0.19059  1
