CIF file written using JARVIS-Tools package.
data_La3BeGaS7
_symmetry_space_group_name_H-M  'P6_3'
_cell_length_a       9.93165
_cell_length_b       9.93165
_cell_length_c       6.45708
_cell_angle_alpha    90
_cell_angle_beta     90
_cell_angle_gamma    120

_symmetry_Int_Tables_number  173
_chemical_formula_structural  La3BeGaS7
_chemical_formula_sum  La6Be2Ga2S4
_cell_volume  551.5812692952355
_cell_formula_units_Z  2
loop_
  _symmetry_equiv_pos_site_id
 _symmetry_equiv_pos_as_xyz
 1  'x, y, z'
loop_
 _atom_site_type_symbol
 _atom_site_label
 _atom_site_symmetry_multiplicity
 _atom_site_fract_x
 _atom_site_fract_y
 _atom_site_fract_z
 _atom_site_fract_occupancy
 Be  Be1  1  0.00000  0.00000  0.33777  1
 Be  Be2  1  0.00000  0.00000  -0.16223  1
 Ga  Ga1  1  0.33333  0.66667  0.64971  1
 Ga  Ga2  1  0.66667  0.33333  0.14971  1
 La  La1  1  0.37655  0.21156  0.72715  1
 La  La2  1  0.78844  0.16499  0.72715  1
 La  La3  1  0.62345  0.78844  0.22715  1
 La  La4  1  0.83501  0.62345  0.72715  1
 La  La5  1  0.21156  0.83501  0.22715  1
 La  La6  1  0.16499  0.37655  0.22715  1
 S  S1  1  0.33333  0.66667  0.00481  1
 S  S2  1  0.23387  0.12980  0.31058  1
 S  S3  1  0.08765  0.55846  0.50850  1
 S  S4  1  0.44154  0.52919  0.50850  1
 S  S5  1  0.91235  0.44154  0.00850  1
 S  S6  1  0.66667  0.33333  0.50481  1
 S  S7  1  0.89594  0.76613  0.31058  1
 S  S8  1  0.52919  0.08765  0.00850  1
 S  S9  1  0.10406  0.23387  0.81058  1
 S  S10  1  0.76613  0.87020  0.81058  1
 S  S11  1  0.47081  0.91235  0.50850  1
 S  S12  1  0.12980  0.89594  0.81058  1
 S  S13  1  0.55846  0.47081  0.00850  1
 S  S14  1  0.87020  0.10406  0.31058  1
