CIF file written using JARVIS-Tools package.
data_Ce3Ni2Ge7
_symmetry_space_group_name_H-M  'Cmmm'
_cell_length_a       12.8816
_cell_length_b       12.8816
_cell_length_c       4.29338
_cell_angle_alpha    90
_cell_angle_beta     90
_cell_angle_gamma    161.007

_symmetry_Int_Tables_number  65
_chemical_formula_structural  Ce3Ni2Ge7
_chemical_formula_sum  Ce3Ni2Ge7
_cell_volume  231.8605628435313
_cell_formula_units_Z  1
loop_
  _symmetry_equiv_pos_site_id
 _symmetry_equiv_pos_as_xyz
 1  'x, y, z'
loop_
 _atom_site_type_symbol
 _atom_site_label
 _atom_site_symmetry_multiplicity
 _atom_site_fract_x
 _atom_site_fract_y
 _atom_site_fract_z
 _atom_site_fract_occupancy
 Ce  Ce1  1  0.68399  0.31601  0.50000  1
 Ce  Ce2  1  0.31601  0.68399  0.50000  1
 Ce  Ce3  1  0.00000  0.00000  0.00000  1
 Ge  Ge1  1  0.58767  0.41233  0.00000  1
 Ge  Ge2  1  0.41233  0.58767  0.00000  1
 Ge  Ge3  1  0.77898  0.22102  0.00000  1
 Ge  Ge4  1  0.22102  0.77898  0.00000  1
 Ge  Ge5  1  0.91202  0.08798  0.50000  1
 Ge  Ge6  1  0.08798  0.91202  0.50000  1
 Ge  Ge7  1  0.50000  0.50000  0.50000  1
 Ni  Ni1  1  0.87175  0.12825  0.00000  1
 Ni  Ni2  1  0.12825  0.87175  0.00000  1
