CIF file written using JARVIS-Tools package.
data_LaCoO3
_symmetry_space_group_name_H-M  'R-3c'
_cell_length_a       5.38285
_cell_length_b       5.38043
_cell_length_c       5.4738
_cell_angle_alpha    90.0018
_cell_angle_beta     120.555
_cell_angle_gamma    118.827

_symmetry_Int_Tables_number  167
_chemical_formula_structural  LaCoO3
_chemical_formula_sum  La2Co2O6
_cell_volume  113.11104689084596
_cell_formula_units_Z  2
loop_
  _symmetry_equiv_pos_site_id
 _symmetry_equiv_pos_as_xyz
 1  'x, y, z'
loop_
 _atom_site_type_symbol
 _atom_site_label
 _atom_site_symmetry_multiplicity
 _atom_site_fract_x
 _atom_site_fract_y
 _atom_site_fract_z
 _atom_site_fract_occupancy
 Co  Co1  1  -0.00001  0.00001  -0.00000  1
 Co  Co2  1  -0.00001  0.50001  0.49999  1
 La  La1  1  0.49997  0.74997  0.24993  1
 La  La2  1  0.50002  0.25003  0.75006  1
 O  O1  1  0.94458  0.19409  0.69410  1
 O  O2  1  0.05540  0.80590  0.30588  1
 O  O3  1  0.49998  0.74977  0.80526  1
 O  O4  1  0.50000  0.25023  0.19472  1
 O  O5  1  0.05501  0.30574  0.24929  1
 O  O6  1  0.94498  0.69426  0.75069  1
