CIF file written using JARVIS-Tools package.
data_CeW2O8
_symmetry_space_group_name_H-M  'C2/c'
_cell_length_a       7.28425
_cell_length_b       7.28425
_cell_length_c       7.84758
_cell_angle_alpha    63.7329
_cell_angle_beta     63.7329
_cell_angle_gamma    68.0531

_symmetry_Int_Tables_number  15
_chemical_formula_structural  CeW2O8
_chemical_formula_sum  Ce2W4O6
_cell_volume  326.5453290509336
_cell_formula_units_Z  2
loop_
  _symmetry_equiv_pos_site_id
 _symmetry_equiv_pos_as_xyz
 1  'x, y, z'
loop_
 _atom_site_type_symbol
 _atom_site_label
 _atom_site_symmetry_multiplicity
 _atom_site_fract_x
 _atom_site_fract_y
 _atom_site_fract_z
 _atom_site_fract_occupancy
 Ce  Ce1  1  0.96717  0.03283  0.25000  1
 Ce  Ce2  1  0.03283  0.96717  0.75000  1
 O  O1  1  0.59668  0.67110  0.32315  1
 O  O2  1  0.21946  0.97719  0.41351  1
 O  O3  1  0.94778  0.36457  0.21195  1
 O  O4  1  0.32556  0.98448  0.05832  1
 O  O5  1  0.78054  0.02281  0.58649  1
 O  O6  1  0.97719  0.21946  0.91351  1
 O  O7  1  0.67110  0.59668  0.82315  1
 O  O8  1  0.98448  0.32556  0.55832  1
 O  O9  1  0.01552  0.67444  0.44168  1
 O  O10  1  0.63543  0.05222  0.28805  1
 O  O11  1  0.02281  0.78054  0.08649  1
 O  O12  1  0.32890  0.40332  0.17685  1
 O  O13  1  0.67444  0.01552  0.94168  1
 O  O14  1  0.05222  0.63543  0.78805  1
 O  O15  1  0.36457  0.94778  0.71195  1
 O  O16  1  0.40332  0.32890  0.67685  1
 W  W1  1  0.50535  0.06257  0.76750  1
 W  W2  1  0.06257  0.50535  0.26750  1
 W  W3  1  0.93743  0.49465  0.73250  1
 W  W4  1  0.49465  0.93743  0.23250  1
