CIF file written using JARVIS-Tools package.
data_LiMnPO4
_symmetry_space_group_name_H-M  'Pna2_1'
_cell_length_a       4.98886
_cell_length_b       11.3905
_cell_length_c       5.97382
_cell_angle_alpha    89.9988
_cell_angle_beta     90
_cell_angle_gamma    89.9998

_symmetry_Int_Tables_number  33
_chemical_formula_structural  LiMnPO4
_chemical_formula_sum  Li4Mn4P4O6
_cell_volume  339.46608262251226
_cell_formula_units_Z  4
loop_
  _symmetry_equiv_pos_site_id
 _symmetry_equiv_pos_as_xyz
 1  'x, y, z'
loop_
 _atom_site_type_symbol
 _atom_site_label
 _atom_site_symmetry_multiplicity
 _atom_site_fract_x
 _atom_site_fract_y
 _atom_site_fract_z
 _atom_site_fract_occupancy
 Li  Li1  1  0.99207  0.06531  0.22039  1
 Li  Li2  1  0.49218  0.43467  0.72046  1
 Li  Li3  1  0.99218  0.56532  0.27960  1
 Li  Li4  1  0.49207  0.93468  0.77955  1
 Mn  Mn1  1  0.98711  0.32900  0.96598  1
 Mn  Mn2  1  0.48711  0.67100  0.03406  1
 Mn  Mn3  1  0.48701  0.17100  0.46590  1
 Mn  Mn4  1  0.98701  0.82900  0.53405  1
 O  O1  1  0.88337  0.45875  0.74134  1
 O  O2  1  0.80790  0.41853  0.22230  1
 O  O3  1  0.30781  0.08147  0.72224  1
 O  O4  1  0.38328  0.04125  0.24127  1
 O  O5  1  0.38338  0.54126  0.25871  1
 O  O6  1  0.89101  0.64546  0.98055  1
 O  O7  1  0.80781  0.91853  0.27772  1
 O  O8  1  0.88327  0.95876  0.75868  1
 O  O9  1  0.91176  0.15572  0.94802  1
 O  O10  1  0.89091  0.14546  0.51943  1
 O  O11  1  0.91183  0.65571  0.55197  1
 O  O12  1  0.41176  0.84428  0.05192  1
 O  O13  1  0.30791  0.58146  0.77775  1
 O  O14  1  0.39100  0.35454  0.01951  1
 O  O15  1  0.41183  0.34429  0.44809  1
 O  O16  1  0.39090  0.85454  0.48051  1
 P  P1  1  0.99773  0.08503  0.73677  1
 P  P2  1  0.49782  0.41498  0.23683  1
 P  P3  1  0.99782  0.58503  0.76322  1
 P  P4  1  0.49773  0.91497  0.26317  1
