CIF file written using JARVIS-Tools package.
data_Li3Ni2OF5
_symmetry_space_group_name_H-M  'F222'
_cell_length_a       9.61641
_cell_length_b       9.15665
_cell_length_c       5.05281
_cell_angle_alpha    79.4767
_cell_angle_beta     69.4189
_cell_angle_gamma    31.1044

_symmetry_Int_Tables_number  22
_chemical_formula_structural  Li3Ni2OF5
_chemical_formula_sum  Li6Ni4O2F0
_cell_volume  208.63294091047985
_cell_formula_units_Z  2
loop_
  _symmetry_equiv_pos_site_id
 _symmetry_equiv_pos_as_xyz
 1  'x, y, z'
loop_
 _atom_site_type_symbol
 _atom_site_label
 _atom_site_symmetry_multiplicity
 _atom_site_fract_x
 _atom_site_fract_y
 _atom_site_fract_z
 _atom_site_fract_occupancy
 F  F1  1  0.08239  0.58218  0.41543  1
 F  F2  1  0.75731  0.24269  0.75731  1
 F  F3  1  0.15503  0.67885  0.81163  1
 F  F4  1  0.81163  0.35448  0.15503  1
 F  F5  1  0.24269  0.75731  0.24269  1
 F  F6  1  0.67885  0.15503  0.35448  1
 F  F7  1  0.41543  0.92000  0.08239  1
 F  F8  1  0.92000  0.41543  0.58218  1
 F  F9  1  0.35448  0.81163  0.67885  1
 F  F10  1  0.58218  0.08239  0.92000  1
 Li  Li1  1  0.57148  0.57148  0.92852  1
 Li  Li2  1  0.25000  0.25000  0.25000  1
 Li  Li3  1  0.83402  0.83402  0.16598  1
 Li  Li4  1  0.50000  0.50000  0.50000  1
 Li  Li5  1  0.92852  0.92852  0.57148  1
 Li  Li6  1  0.16598  0.16598  0.83402  1
 Ni  Ni1  1  0.32712  0.32712  0.67288  1
 Ni  Ni2  1  0.00000  0.00000  0.00000  1
 Ni  Ni3  1  0.67288  0.67288  0.32712  1
 Ni  Ni4  1  0.75000  0.75000  0.75000  1
 O  O1  1  0.98975  0.51025  0.98975  1
 O  O2  1  0.51025  0.98975  0.51025  1
