CIF file written using JARVIS-Tools package.
data_Ca3Ge2Au9
_symmetry_space_group_name_H-M  'Pnnm'
_cell_length_a       4.532
_cell_length_b       9.43468
_cell_length_c       13.6803
_cell_angle_alpha    90
_cell_angle_beta     90
_cell_angle_gamma    90

_symmetry_Int_Tables_number  58
_chemical_formula_structural  Ca3Ge2Au9
_chemical_formula_sum  Ca6Ge4Au8
_cell_volume  584.9430688499765
_cell_formula_units_Z  2
loop_
  _symmetry_equiv_pos_site_id
 _symmetry_equiv_pos_as_xyz
 1  'x, y, z'
loop_
 _atom_site_type_symbol
 _atom_site_label
 _atom_site_symmetry_multiplicity
 _atom_site_fract_x
 _atom_site_fract_y
 _atom_site_fract_z
 _atom_site_fract_occupancy
 Au  Au1  1  0.00000  0.40024  0.83922  1
 Au  Au2  1  0.00000  0.21143  0.00254  1
 Au  Au3  1  0.00000  0.78857  0.99746  1
 Au  Au4  1  0.50000  0.28857  0.50254  1
 Au  Au5  1  0.50000  0.00000  0.00000  1
 Au  Au6  1  0.00000  0.27509  0.36763  1
 Au  Au7  1  0.00000  0.72491  0.63237  1
 Au  Au8  1  0.50000  0.22491  0.86763  1
 Au  Au9  1  0.50000  0.71143  0.49746  1
 Au  Au10  1  0.00000  0.26621  0.63609  1
 Au  Au11  1  0.50000  0.23379  0.13609  1
 Au  Au12  1  0.50000  0.76621  0.86391  1
 Au  Au13  1  0.00000  0.59976  0.16078  1
 Au  Au14  1  0.00000  0.50000  0.50000  1
 Au  Au15  1  0.50000  0.90024  0.66078  1
 Au  Au16  1  0.50000  0.09976  0.33922  1
 Au  Au17  1  0.00000  0.73379  0.36391  1
 Au  Au18  1  0.50000  0.77509  0.13237  1
 Ca  Ca1  1  0.50000  0.50000  0.00000  1
 Ca  Ca2  1  0.00000  0.00000  0.50000  1
 Ca  Ca3  1  0.50000  0.49102  0.31561  1
 Ca  Ca4  1  0.50000  0.50898  0.68439  1
 Ca  Ca5  1  0.00000  0.00898  0.81561  1
 Ca  Ca6  1  0.00000  0.99102  0.18439  1
 Ge  Ge1  1  0.00000  0.66170  0.81499  1
 Ge  Ge2  1  0.00000  0.33830  0.18501  1
 Ge  Ge3  1  0.50000  0.16170  0.68501  1
 Ge  Ge4  1  0.50000  0.83830  0.31499  1
