CIF file written using JARVIS-Tools package.
data_SiGeC
_symmetry_space_group_name_H-M  'Pm'
_cell_length_a       3.18993
_cell_length_b       6.42831
_cell_length_c       2.51389
_cell_angle_alpha    90
_cell_angle_beta     90
_cell_angle_gamma    110.969

_symmetry_Int_Tables_number  6
_chemical_formula_structural  SiGeC
_chemical_formula_sum  SiGeC
_cell_volume  48.13539530861516
_cell_formula_units_Z  1
loop_
  _symmetry_equiv_pos_site_id
 _symmetry_equiv_pos_as_xyz
 1  'x, y, z'
loop_
 _atom_site_type_symbol
 _atom_site_label
 _atom_site_symmetry_multiplicity
 _atom_site_fract_x
 _atom_site_fract_y
 _atom_site_fract_z
 _atom_site_fract_occupancy
 C  C1  1  0.19385  0.03724  0.00000  1
 Ge  Ge1  1  -0.16477  0.23490  0.00000  1
 Si  Si1  1  0.97091  0.72785  0.00000  1
