CIF file written using JARVIS-Tools package.
data_ZnCN2
_symmetry_space_group_name_H-M  'R-3m'
_cell_length_a       5.2602
_cell_length_b       5.2602
_cell_length_c       5.2602
_cell_angle_alpha    28.8113
_cell_angle_beta     28.8113
_cell_angle_gamma    28.8113

_symmetry_Int_Tables_number  166
_chemical_formula_structural  ZnCN2
_chemical_formula_sum  ZnCN2
_cell_volume  29.89123445466202
_cell_formula_units_Z  1
loop_
  _symmetry_equiv_pos_site_id
 _symmetry_equiv_pos_as_xyz
 1  'x, y, z'
loop_
 _atom_site_type_symbol
 _atom_site_label
 _atom_site_symmetry_multiplicity
 _atom_site_fract_x
 _atom_site_fract_y
 _atom_site_fract_z
 _atom_site_fract_occupancy
 C  C1  1  0.50000  0.50000  0.50000  1
 N  N1  1  0.77343  0.77343  0.77342  1
 N  N2  1  0.22658  0.22658  0.22657  1
 Zn  Zn1  1  0.00000  0.00000  0.00000  1
