CIF file written using JARVIS-Tools package.
data_Zr3Ti2Pb5O15
_symmetry_space_group_name_H-M  'Cmm2'
_cell_length_a       14.6231
_cell_length_b       14.6231
_cell_length_c       4.27746
_cell_angle_alpha    89.9803
_cell_angle_beta     89.9803
_cell_angle_gamma    22.6013

_symmetry_Int_Tables_number  35
_chemical_formula_structural  Zr3Ti2Pb5O15
_chemical_formula_sum  Zr3Ti2Pb5O5
_cell_volume  351.5224024810856
_cell_formula_units_Z  1
loop_
  _symmetry_equiv_pos_site_id
 _symmetry_equiv_pos_as_xyz
 1  'x, y, z'
loop_
 _atom_site_type_symbol
 _atom_site_label
 _atom_site_symmetry_multiplicity
 _atom_site_fract_x
 _atom_site_fract_y
 _atom_site_fract_z
 _atom_site_fract_occupancy
 O  O1  1  0.30654  0.81121  0.60017  1
 O  O2  1  0.11193  0.11193  0.06288  1
 O  O3  1  0.71060  0.71060  0.10216  1
 O  O4  1  0.11626  0.58985  0.60147  1
 O  O5  1  0.90275  0.90275  0.06286  1
 O  O6  1  0.50735  0.50735  0.06152  1
 O  O7  1  0.81121  0.30654  0.60017  1
 O  O8  1  0.30405  0.30405  0.10217  1
 O  O9  1  0.00726  0.50735  0.60570  1
 O  O10  1  0.58985  0.11626  0.60147  1
 O  O11  1  0.20318  0.70832  0.60016  1
 O  O12  1  0.42460  0.89851  0.60145  1
 O  O13  1  0.70832  0.20318  0.60016  1
 O  O14  1  0.50735  0.00726  0.60570  1
 O  O15  1  0.89851  0.42460  0.60145  1
 Pb  Pb1  1  0.40340  0.40340  0.96826  1
 Pb  Pb2  1  0.80388  0.80388  0.97459  1
 Pb  Pb3  1  0.21049  0.21049  0.97452  1
 Pb  Pb4  1  0.61086  0.61086  0.96817  1
 Pb  Pb5  1  0.00713  0.00713  0.96368  1
 Ti  Ti1  1  0.30489  0.30489  0.51808  1
 Ti  Ti2  1  0.70960  0.70960  0.51808  1
 Zr  Zr1  1  0.50726  0.50726  0.52671  1
 Zr  Zr2  1  0.90357  0.90357  0.52920  1
 Zr  Zr3  1  0.11095  0.11095  0.52923  1
