CIF file written using JARVIS-Tools package.
data_ZrAlPd
_symmetry_space_group_name_H-M  'Amm2'
_cell_length_a       5.31569
_cell_length_b       5.31569
_cell_length_c       8.43195
_cell_angle_alpha    90
_cell_angle_beta     90
_cell_angle_gamma    119.192

_symmetry_Int_Tables_number  38
_chemical_formula_structural  ZrAlPd
_chemical_formula_sum  Zr4Al4Pd4
_cell_volume  207.9973274400047
_cell_formula_units_Z  4
loop_
  _symmetry_equiv_pos_site_id
 _symmetry_equiv_pos_as_xyz
 1  'x, y, z'
loop_
 _atom_site_type_symbol
 _atom_site_label
 _atom_site_symmetry_multiplicity
 _atom_site_fract_x
 _atom_site_fract_y
 _atom_site_fract_z
 _atom_site_fract_occupancy
 Al  Al1  1  0.00361  0.99639  0.24627  1
 Al  Al2  1  0.00361  0.99639  0.75373  1
 Al  Al3  1  0.64936  0.83165  0.50000  1
 Al  Al4  1  0.16835  0.35064  0.50000  1
 Pd  Pd1  1  0.16461  0.83539  0.50000  1
 Pd  Pd2  1  0.33824  0.16794  0.00000  1
 Pd  Pd3  1  0.83206  0.66176  0.00000  1
 Pd  Pd4  1  0.83282  0.16718  0.00000  1
 Zr  Zr1  1  0.66757  0.33243  0.30114  1
 Zr  Zr2  1  0.33631  0.66369  0.18144  1
 Zr  Zr3  1  0.33631  0.66369  0.81856  1
 Zr  Zr4  1  0.66757  0.33243  0.69886  1
