CIF file written using JARVIS-Tools package.
data_Cu3Rh
_symmetry_space_group_name_H-M  'P6_3/mmc'
_cell_length_a       5.22635
_cell_length_b       5.22635
_cell_length_c       4.22621
_cell_angle_alpha    90
_cell_angle_beta     90
_cell_angle_gamma    120

_symmetry_Int_Tables_number  194
_chemical_formula_structural  Cu3Rh
_chemical_formula_sum  Cu6Rh2
_cell_volume  99.97200782950895
_cell_formula_units_Z  2
loop_
  _symmetry_equiv_pos_site_id
 _symmetry_equiv_pos_as_xyz
 1  'x, y, z'
loop_
 _atom_site_type_symbol
 _atom_site_label
 _atom_site_symmetry_multiplicity
 _atom_site_fract_x
 _atom_site_fract_y
 _atom_site_fract_z
 _atom_site_fract_occupancy
 Cu  Cu1  1  0.16463  0.32927  0.25000  1
 Cu  Cu2  1  0.67073  0.83537  0.25000  1
 Cu  Cu3  1  0.16463  0.83537  0.25000  1
 Cu  Cu4  1  0.83537  0.67073  0.75000  1
 Cu  Cu5  1  0.32927  0.16463  0.75000  1
 Cu  Cu6  1  0.83537  0.16463  0.75000  1
 Rh  Rh1  1  0.33333  0.66667  0.75000  1
 Rh  Rh2  1  0.66667  0.33333  0.25000  1
