CIF file written using JARVIS-Tools package.
data_CuBS2
_symmetry_space_group_name_H-M  'R3m'
_cell_length_a       6.47874
_cell_length_b       6.47874
_cell_length_c       6.47874
_cell_angle_alpha    28.34
_cell_angle_beta     28.34
_cell_angle_gamma    28.3399

_symmetry_Int_Tables_number  160
_chemical_formula_structural  CuBS2
_chemical_formula_sum  CuBS2
_cell_volume  54.15033427221336
_cell_formula_units_Z  1
loop_
  _symmetry_equiv_pos_site_id
 _symmetry_equiv_pos_as_xyz
 1  'x, y, z'
loop_
 _atom_site_type_symbol
 _atom_site_label
 _atom_site_symmetry_multiplicity
 _atom_site_fract_x
 _atom_site_fract_y
 _atom_site_fract_z
 _atom_site_fract_occupancy
 B  B1  1  0.00752  0.00752  0.00752  1
 Cu  Cu1  1  0.84581  0.84581  0.84581  1
 S  S1  1  0.72808  0.72808  0.72808  1
 S  S2  1  0.26560  0.26560  0.26560  1
