CIF file written using JARVIS-Tools package.
data_TbInGe2O7
_symmetry_space_group_name_H-M  'C2'
_cell_length_a       5.68285
_cell_length_b       5.68286
_cell_length_c       9.84331
_cell_angle_alpha    83.3167
_cell_angle_beta     83.3167
_cell_angle_gamma    104.492

_symmetry_Int_Tables_number  5
_chemical_formula_structural  TbInGe2O7
_chemical_formula_sum  Tb2In2Ge4O4
_cell_volume  302.16202722817553
_cell_formula_units_Z  2
loop_
  _symmetry_equiv_pos_site_id
 _symmetry_equiv_pos_as_xyz
 1  'x, y, z'
loop_
 _atom_site_type_symbol
 _atom_site_label
 _atom_site_symmetry_multiplicity
 _atom_site_fract_x
 _atom_site_fract_y
 _atom_site_fract_z
 _atom_site_fract_occupancy
 Ge  Ge1  1  0.77244  0.77209  0.95777  1
 Ge  Ge2  1  0.22791  0.22756  0.04223  1
 Ge  Ge3  1  0.22790  0.22758  0.54223  1
 Ge  Ge4  1  0.77242  0.77210  0.45777  1
 In  In1  1  0.31549  0.68450  0.25001  1
 In  In2  1  0.31550  0.68451  0.74999  1
 O  O1  1  0.94044  0.05956  0.50000  1
 O  O2  1  0.61535  0.59342  0.11545  1
 O  O3  1  0.40658  0.38465  0.88455  1
 O  O4  1  0.10116  0.41863  0.64312  1
 O  O5  1  0.61536  0.59341  0.61545  1
 O  O6  1  0.58145  0.89884  0.85684  1
 O  O7  1  0.40659  0.38464  0.38455  1
 O  O8  1  0.58137  0.89884  0.35688  1
 O  O9  1  0.94247  0.61257  0.35900  1
 O  O10  1  0.94044  0.05956  0.00000  1
 O  O11  1  0.10116  0.41855  0.14316  1
 O  O12  1  0.94250  0.61253  0.85904  1
 O  O13  1  0.38747  0.05750  0.14096  1
 O  O14  1  0.38743  0.05753  0.64100  1
 Tb  Tb1  1  0.70928  0.29073  0.75001  1
 Tb  Tb2  1  0.70927  0.29072  0.24999  1
