CIF file written using JARVIS-Tools package.
data_Ta3Cu2S6
_symmetry_space_group_name_H-M  'Cmc2_1'
_cell_length_a       8.89821
_cell_length_b       8.8982
_cell_length_c       13.1166
_cell_angle_alpha    90
_cell_angle_beta     90
_cell_angle_gamma    158.165

_symmetry_Int_Tables_number  36
_chemical_formula_structural  Ta3Cu2S6
_chemical_formula_sum  Ta6Cu4S2
_cell_volume  386.2744699005784
_cell_formula_units_Z  2
loop_
  _symmetry_equiv_pos_site_id
 _symmetry_equiv_pos_as_xyz
 1  'x, y, z'
loop_
 _atom_site_type_symbol
 _atom_site_label
 _atom_site_symmetry_multiplicity
 _atom_site_fract_x
 _atom_site_fract_y
 _atom_site_fract_z
 _atom_site_fract_occupancy
 Cu  Cu1  1  0.27948  0.72052  0.03464  1
 Cu  Cu2  1  0.05355  0.94645  0.96497  1
 Cu  Cu3  1  0.72052  0.27948  0.53464  1
 Cu  Cu4  1  0.94645  0.05355  0.46497  1
 S  S1  1  0.27808  0.72192  0.86646  1
 S  S2  1  0.61516  0.38484  0.87185  1
 S  S3  1  0.60791  0.39209  0.62938  1
 S  S4  1  0.94560  0.05440  0.63263  1
 S  S5  1  0.72192  0.27808  0.36646  1
 S  S6  1  0.28161  0.71839  0.62909  1
 S  S7  1  0.38484  0.61516  0.37185  1
 S  S8  1  0.71839  0.28161  0.12909  1
 S  S9  1  0.94220  0.05780  0.87088  1
 S  S10  1  0.39209  0.60791  0.12938  1
 S  S11  1  0.05780  0.94220  0.37088  1
 S  S12  1  0.05440  0.94560  0.13263  1
 Ta  Ta1  1  0.39084  0.60916  0.75070  1
 Ta  Ta2  1  0.05662  0.94338  0.75047  1
 Ta  Ta3  1  0.72166  0.27834  0.74894  1
 Ta  Ta4  1  0.94338  0.05662  0.25047  1
 Ta  Ta5  1  0.60916  0.39084  0.25070  1
 Ta  Ta6  1  0.27834  0.72166  0.24894  1
