CIF file written using JARVIS-Tools package.
data_ThUBe26
_symmetry_space_group_name_H-M  'F432'
_cell_length_a       7.22784
_cell_length_b       7.22784
_cell_length_c       7.22784
_cell_angle_alpha    60
_cell_angle_beta     60
_cell_angle_gamma    60

_symmetry_Int_Tables_number  209
_chemical_formula_structural  ThUBe26
_chemical_formula_sum  ThUBe26
_cell_volume  266.9997577055519
_cell_formula_units_Z  1
loop_
  _symmetry_equiv_pos_site_id
 _symmetry_equiv_pos_as_xyz
 1  'x, y, z'
loop_
 _atom_site_type_symbol
 _atom_site_label
 _atom_site_symmetry_multiplicity
 _atom_site_fract_x
 _atom_site_fract_y
 _atom_site_fract_z
 _atom_site_fract_occupancy
 Be  Be1  1  0.46290  0.04239  0.68646  1
 Be  Be2  1  0.53710  0.31354  0.95761  1
 Be  Be3  1  0.95761  0.19176  0.53710  1
 Be  Be4  1  0.31354  0.53710  0.19176  1
 Be  Be5  1  0.19176  0.95761  0.31354  1
 Be  Be6  1  0.04239  0.68646  0.46290  1
 Be  Be7  1  0.46290  0.80824  0.04239  1
 Be  Be8  1  0.68646  0.04239  0.80824  1
 Be  Be9  1  0.80824  0.46290  0.68646  1
 Be  Be10  1  0.95761  0.53710  0.31354  1
 Be  Be11  1  0.53710  0.95761  0.19176  1
 Be  Be12  1  0.19176  0.31354  0.53710  1
 Be  Be13  1  0.31354  0.19176  0.95761  1
 Be  Be14  1  0.75000  0.75000  0.75000  1
 Be  Be15  1  0.04239  0.46290  0.80824  1
 Be  Be16  1  0.80824  0.68646  0.04239  1
 Be  Be17  1  0.68646  0.80824  0.46290  1
 Be  Be18  1  0.31354  0.95761  0.53710  1
 Be  Be19  1  0.19176  0.53710  0.95761  1
 Be  Be20  1  0.53710  0.19176  0.31354  1
 Be  Be21  1  0.95761  0.31354  0.19176  1
 Be  Be22  1  0.68646  0.46290  0.04239  1
 Be  Be23  1  0.80824  0.04239  0.46290  1
 Be  Be24  1  0.04239  0.80824  0.68646  1
 Be  Be25  1  0.46290  0.68646  0.80824  1
 Be  Be26  1  0.25000  0.25000  0.25000  1
 Th  Th1  1  0.00000  0.00000  0.00000  1
 U  U1  1  0.50000  0.50000  0.50000  1
