CIF file written using JARVIS-Tools package.
data_Na2F
_symmetry_space_group_name_H-M  'Pmmm'
_cell_length_a       3.22159
_cell_length_b       3.54452
_cell_length_c       6.17701
_cell_angle_alpha    90
_cell_angle_beta     90
_cell_angle_gamma    90

_symmetry_Int_Tables_number  47
_chemical_formula_structural  Na2F
_chemical_formula_sum  Na2F
_cell_volume  70.53526975513007
_cell_formula_units_Z  1
loop_
  _symmetry_equiv_pos_site_id
 _symmetry_equiv_pos_as_xyz
 1  'x, y, z'
loop_
 _atom_site_type_symbol
 _atom_site_label
 _atom_site_symmetry_multiplicity
 _atom_site_fract_x
 _atom_site_fract_y
 _atom_site_fract_z
 _atom_site_fract_occupancy
 F  F1  1  0.46666  0.00000  0.00000  1
 Na  Na1  1  -0.03333  0.00000  0.75689  1
 Na  Na2  1  -0.03333  0.00000  0.24311  1
