CIF file written using JARVIS-Tools package.
data_NbAl2Ni9
_symmetry_space_group_name_H-M  'P4/mmm'
_cell_length_a       3.60823
_cell_length_b       3.60823
_cell_length_c       10.6627
_cell_angle_alpha    90
_cell_angle_beta     90
_cell_angle_gamma    90

_symmetry_Int_Tables_number  123
_chemical_formula_structural  NbAl2Ni9
_chemical_formula_sum  NbAl2Ni9
_cell_volume  138.82069405318742
_cell_formula_units_Z  1
loop_
  _symmetry_equiv_pos_site_id
 _symmetry_equiv_pos_as_xyz
 1  'x, y, z'
loop_
 _atom_site_type_symbol
 _atom_site_label
 _atom_site_symmetry_multiplicity
 _atom_site_fract_x
 _atom_site_fract_y
 _atom_site_fract_z
 _atom_site_fract_occupancy
 Al  Al1  1  0.00000  0.00000  0.33992  1
 Al  Al2  1  0.00000  0.00000  0.66008  1
 Nb  Nb1  1  0.00000  0.00000  0.00000  1
 Ni  Ni1  1  0.50000  0.50000  0.00000  1
 Ni  Ni2  1  0.50000  0.50000  0.33666  1
 Ni  Ni3  1  0.50000  0.50000  0.66334  1
 Ni  Ni4  1  0.50000  0.00000  0.17231  1
 Ni  Ni5  1  0.50000  0.00000  0.50000  1
 Ni  Ni6  1  0.50000  0.00000  0.82769  1
 Ni  Ni7  1  0.00000  0.50000  0.17231  1
 Ni  Ni8  1  0.00000  0.50000  0.50000  1
 Ni  Ni9  1  0.00000  0.50000  0.82769  1
