CIF file written using JARVIS-Tools package.
data_Sr3LaCo2O8
_symmetry_space_group_name_H-M  'Amm2'
_cell_length_a       6.79307
_cell_length_b       6.79307
_cell_length_c       5.36678
_cell_angle_alpha    90
_cell_angle_beta     90
_cell_angle_gamma    133.444

_symmetry_Int_Tables_number  38
_chemical_formula_structural  Sr3LaCo2O8
_chemical_formula_sum  Sr3LaCo2O8
_cell_volume  179.80890512686668
_cell_formula_units_Z  1
loop_
  _symmetry_equiv_pos_site_id
 _symmetry_equiv_pos_as_xyz
 1  'x, y, z'
loop_
 _atom_site_type_symbol
 _atom_site_label
 _atom_site_symmetry_multiplicity
 _atom_site_fract_x
 _atom_site_fract_y
 _atom_site_fract_z
 _atom_site_fract_occupancy
 Co  Co1  1  0.49749  0.50251  0.50000  1
 Co  Co2  1  0.99728  0.00272  0.00000  1
 La  La1  1  0.14023  0.85977  0.50000  1
 O  O1  1  0.84189  0.15811  0.00000  1
 O  O2  1  0.33400  0.66600  0.50000  1
 O  O3  1  0.65827  0.34173  0.50000  1
 O  O4  1  0.16026  0.83974  0.00000  1
 O  O5  1  0.75599  0.75031  0.74636  1
 O  O6  1  0.24969  0.24401  0.25364  1
 O  O7  1  0.24969  0.24401  0.74636  1
 O  O8  1  0.75599  0.75031  0.25364  1
 Sr  Sr1  1  0.64321  0.35679  0.00000  1
 Sr  Sr2  1  0.35949  0.64051  0.00000  1
 Sr  Sr3  1  0.85652  0.14348  0.50000  1
