CIF file written using JARVIS-Tools package.
data_BO2
_symmetry_space_group_name_H-M  'Pmm2'
_cell_length_a       4.05083
_cell_length_b       2.81142
_cell_length_c       2.37479
_cell_angle_alpha    90
_cell_angle_beta     89.9922
_cell_angle_gamma    90

_symmetry_Int_Tables_number  25
_chemical_formula_structural  BO2
_chemical_formula_sum  BO2
_cell_volume  27.045471727592837
_cell_formula_units_Z  1
loop_
  _symmetry_equiv_pos_site_id
 _symmetry_equiv_pos_as_xyz
 1  'x, y, z'
loop_
 _atom_site_type_symbol
 _atom_site_label
 _atom_site_symmetry_multiplicity
 _atom_site_fract_x
 _atom_site_fract_y
 _atom_site_fract_z
 _atom_site_fract_occupancy
 B  B1  1  0.74471  0.00000  -0.03334  1
 O  O1  1  -0.42049  0.00000  -0.53330  1
 O  O2  1  0.07578  0.00000  -0.03335  1
