CIF file written using JARVIS-Tools package.
data_SrIn2Cu2
_symmetry_space_group_name_H-M  'I4/mmm'
_cell_length_a       6.48007
_cell_length_b       6.48007
_cell_length_c       6.48008
_cell_angle_alpha    139.904
_cell_angle_beta     139.904
_cell_angle_gamma    57.9985

_symmetry_Int_Tables_number  139
_chemical_formula_structural  SrIn2Cu2
_chemical_formula_sum  SrIn2Cu2
_cell_volume  111.87005942937645
_cell_formula_units_Z  1
loop_
  _symmetry_equiv_pos_site_id
 _symmetry_equiv_pos_as_xyz
 1  'x, y, z'
loop_
 _atom_site_type_symbol
 _atom_site_label
 _atom_site_symmetry_multiplicity
 _atom_site_fract_x
 _atom_site_fract_y
 _atom_site_fract_z
 _atom_site_fract_occupancy
 Cu  Cu1  1  0.39213  0.39213  0.00000  1
 Cu  Cu2  1  0.60787  0.60787  -0.00000  1
 In  In1  1  0.75000  0.25000  0.50000  1
 In  In2  1  0.25000  0.75000  0.50000  1
 Sr  Sr1  1  0.00000  0.00000  0.00000  1
