CIF file written using JARVIS-Tools package.
data_CeAlCo4
_symmetry_space_group_name_H-M  'Cmmm'
_cell_length_a       4.06111
_cell_length_b       4.87268
_cell_length_c       4.87269
_cell_angle_alpha    61.8162
_cell_angle_beta     90
_cell_angle_gamma    90

_symmetry_Int_Tables_number  65
_chemical_formula_structural  CeAlCo4
_chemical_formula_sum  CeAlCo4
_cell_volume  84.99099356241025
_cell_formula_units_Z  1
loop_
  _symmetry_equiv_pos_site_id
 _symmetry_equiv_pos_as_xyz
 1  'x, y, z'
loop_
 _atom_site_type_symbol
 _atom_site_label
 _atom_site_symmetry_multiplicity
 _atom_site_fract_x
 _atom_site_fract_y
 _atom_site_fract_z
 _atom_site_fract_occupancy
 Al  Al1  1  0.50000  0.49998  0.50002  1
 Ce  Ce1  1  0.00000  0.99998  0.00002  1
 Co  Co1  1  0.00000  0.30699  0.30702  1
 Co  Co2  1  0.00000  0.69298  0.69301  1
 Co  Co3  1  0.50000  0.49998  0.00002  1
 Co  Co4  1  0.50000  0.99998  0.50002  1
