CIF file written using JARVIS-Tools package.
data_NaCdRh4O8
_symmetry_space_group_name_H-M  'P2_1/m'
_cell_length_a       3.08786
_cell_length_b       9.10127
_cell_length_c       10.8908
_cell_angle_alpha    89.6562
_cell_angle_beta     90
_cell_angle_gamma    90

_symmetry_Int_Tables_number  11
_chemical_formula_structural  NaCdRh4O8
_chemical_formula_sum  Na2Cd2Rh8O6
_cell_volume  306.0634595223685
_cell_formula_units_Z  2
loop_
  _symmetry_equiv_pos_site_id
 _symmetry_equiv_pos_as_xyz
 1  'x, y, z'
loop_
 _atom_site_type_symbol
 _atom_site_label
 _atom_site_symmetry_multiplicity
 _atom_site_fract_x
 _atom_site_fract_y
 _atom_site_fract_z
 _atom_site_fract_occupancy
 Cd  Cd1  1  0.25000  0.23651  0.66092  1
 Cd  Cd2  1  0.75000  0.76349  0.33908  1
 Na  Na1  1  0.25000  0.73495  0.84216  1
 Na  Na2  1  0.75000  0.26505  0.15784  1
 O  O1  1  0.25000  0.08528  0.06854  1
 O  O2  1  0.75000  0.69435  0.66380  1
 O  O3  1  0.75000  0.91472  0.93146  1
 O  O4  1  0.75000  0.41378  0.56948  1
 O  O5  1  0.25000  0.96852  0.70893  1
 O  O6  1  0.25000  0.45152  0.78566  1
 O  O7  1  0.25000  0.58622  0.43052  1
 O  O8  1  0.75000  0.54848  0.21434  1
 O  O9  1  0.25000  0.88320  0.47301  1
 O  O10  1  0.75000  0.61450  0.97547  1
 O  O11  1  0.75000  0.11680  0.52699  1
 O  O12  1  0.25000  0.80446  0.16330  1
 O  O13  1  0.75000  0.03148  0.29107  1
 O  O14  1  0.25000  0.38550  0.02453  1
 O  O15  1  0.25000  0.30565  0.33620  1
 O  O16  1  0.75000  0.19554  0.83670  1
 Rh  Rh1  1  0.75000  0.44266  0.38219  1
 Rh  Rh2  1  0.25000  0.05070  0.88430  1
 Rh  Rh3  1  0.25000  0.55734  0.61781  1
 Rh  Rh4  1  0.75000  0.94930  0.11570  1
 Rh  Rh5  1  0.25000  0.58957  0.09844  1
 Rh  Rh6  1  0.25000  0.09179  0.39867  1
 Rh  Rh7  1  0.75000  0.90821  0.60133  1
 Rh  Rh8  1  0.75000  0.41043  0.90156  1
