CIF file written using JARVIS-Tools package.
data_Mn4Si3Ni5
_symmetry_space_group_name_H-M  'Amm2'
_cell_length_a       4.61618
_cell_length_b       4.61618
_cell_length_c       7.26206
_cell_angle_alpha    90
_cell_angle_beta     90
_cell_angle_gamma    120.06

_symmetry_Int_Tables_number  38
_chemical_formula_structural  Mn4Si3Ni5
_chemical_formula_sum  Mn4Si3Ni5
_cell_volume  133.93436205657466
_cell_formula_units_Z  1
loop_
  _symmetry_equiv_pos_site_id
 _symmetry_equiv_pos_as_xyz
 1  'x, y, z'
loop_
 _atom_site_type_symbol
 _atom_site_label
 _atom_site_symmetry_multiplicity
 _atom_site_fract_x
 _atom_site_fract_y
 _atom_site_fract_z
 _atom_site_fract_occupancy
 Mn  Mn1  1  0.31923  0.68077  0.82571  1
 Mn  Mn2  1  0.67866  0.32134  0.67565  1
 Mn  Mn3  1  0.67866  0.32134  0.32435  1
 Mn  Mn4  1  0.31923  0.68077  0.17429  1
 Ni  Ni1  1  0.68160  0.81191  0.50000  1
 Ni  Ni2  1  0.18809  0.31840  0.50000  1
 Ni  Ni3  1  0.81643  0.18357  0.00000  1
 Ni  Ni4  1  0.33188  0.18250  0.00000  1
 Ni  Ni5  1  0.81750  0.66812  0.00000  1
 Si  Si1  1  0.98742  0.01258  0.24260  1
 Si  Si2  1  0.98742  0.01258  0.75740  1
 Si  Si3  1  0.19392  0.80608  0.50000  1
