CIF file written using JARVIS-Tools package.
data_Na3B2PO5F4
_symmetry_space_group_name_H-M  'Ama2'
_cell_length_a       6.94045
_cell_length_b       6.94045
_cell_length_c       9.01227
_cell_angle_alpha    90
_cell_angle_beta     90
_cell_angle_gamma    122.16

_symmetry_Int_Tables_number  40
_chemical_formula_structural  Na3B2PO5F4
_chemical_formula_sum  Na6B4P2O0F8
_cell_volume  367.50994942426814
_cell_formula_units_Z  2
loop_
  _symmetry_equiv_pos_site_id
 _symmetry_equiv_pos_as_xyz
 1  'x, y, z'
loop_
 _atom_site_type_symbol
 _atom_site_label
 _atom_site_symmetry_multiplicity
 _atom_site_fract_x
 _atom_site_fract_y
 _atom_site_fract_z
 _atom_site_fract_occupancy
 B  B1  1  0.83242  0.61906  0.75000  1
 B  B2  1  0.38094  0.16758  0.25000  1
 B  B3  1  0.94552  0.91773  0.25000  1
 B  B4  1  0.08227  0.05448  0.75000  1
 F  F1  1  0.81559  0.48631  0.62095  1
 F  F2  1  0.51369  0.18441  0.12095  1
 F  F3  1  0.21343  0.17665  0.61994  1
 F  F4  1  0.82335  0.78657  0.38006  1
 F  F5  1  0.21343  0.17665  0.88006  1
 F  F6  1  0.82335  0.78657  0.11994  1
 F  F7  1  0.51369  0.18441  0.37905  1
 F  F8  1  0.81559  0.48631  0.87905  1
 Na  Na1  1  0.18570  0.81430  0.00000  1
 Na  Na2  1  0.18570  0.81430  0.50000  1
 Na  Na3  1  0.80659  0.19341  0.00000  1
 Na  Na4  1  0.80659  0.19341  0.50000  1
 Na  Na5  1  0.48544  0.51456  0.00000  1
 Na  Na6  1  0.48544  0.51456  0.50000  1
 O  O1  1  0.13981  0.49192  0.39440  1
 O  O2  1  0.50808  0.86019  0.89440  1
 O  O3  1  0.36703  0.37153  0.25000  1
 O  O4  1  0.04233  0.83076  0.75000  1
 O  O5  1  0.93455  0.12501  0.25000  1
 O  O6  1  0.87499  0.06545  0.75000  1
 O  O7  1  0.62847  0.63297  0.75000  1
 O  O8  1  0.13981  0.49192  0.10560  1
 O  O9  1  0.16924  0.95767  0.25000  1
 O  O10  1  0.50808  0.86019  0.60560  1
 P  P1  1  0.61514  0.85629  0.75000  1
 P  P2  1  0.14371  0.38486  0.25000  1
