CIF file written using JARVIS-Tools package.
data_BO3
_symmetry_space_group_name_H-M  'P1'
_cell_length_a       4.83547
_cell_length_b       4.07318
_cell_length_c       3.36978
_cell_angle_alpha    121.039
_cell_angle_beta     110.891
_cell_angle_gamma    104.059

_symmetry_Int_Tables_number  1
_chemical_formula_structural  BO3
_chemical_formula_sum  BO3
_cell_volume  44.94728880306185
_cell_formula_units_Z  1
loop_
  _symmetry_equiv_pos_site_id
 _symmetry_equiv_pos_as_xyz
 1  'x, y, z'
loop_
 _atom_site_type_symbol
 _atom_site_label
 _atom_site_symmetry_multiplicity
 _atom_site_fract_x
 _atom_site_fract_y
 _atom_site_fract_z
 _atom_site_fract_occupancy
 B  B1  1  0.77408  0.06529  0.72258  1
 O  O1  1  0.10345  0.21601  -0.00788  1
 O  O2  1  0.54307  0.84774  0.13580  1
 O  O3  1  0.65469  0.17750  0.08935  1
