CIF file written using JARVIS-Tools package.
data_CoO
_symmetry_space_group_name_H-M  'F-43m'
_cell_length_a       4.45319
_cell_length_b       4.45322
_cell_length_c       5.45626
_cell_angle_alpha    114.078
_cell_angle_beta     65.9223
_cell_angle_gamma    89.9987

_symmetry_Int_Tables_number  216
_chemical_formula_structural  CoO
_chemical_formula_sum  Co4O4
_cell_volume  88.37638726170388
_cell_formula_units_Z  4
loop_
  _symmetry_equiv_pos_site_id
 _symmetry_equiv_pos_as_xyz
 1  'x, y, z'
loop_
 _atom_site_type_symbol
 _atom_site_label
 _atom_site_symmetry_multiplicity
 _atom_site_fract_x
 _atom_site_fract_y
 _atom_site_fract_z
 _atom_site_fract_occupancy
 Co  Co1  1  0.00003  -0.00003  -0.00001  1
 Co  Co2  1  0.25003  0.24997  0.49999  1
 Co  Co3  1  0.50003  0.49998  -0.00001  1
 Co  Co4  1  0.75003  0.74997  0.49999  1
 O  O1  1  0.87499  0.12503  0.75001  1
 O  O2  1  0.12497  0.37501  0.25001  1
 O  O3  1  0.37496  0.62503  0.75001  1
 O  O4  1  0.62497  0.87504  0.25002  1
