CIF file written using JARVIS-Tools package.
data_B2O
_symmetry_space_group_name_H-M  'Pmm2'
_cell_length_a       3.69449
_cell_length_b       2.70101
_cell_length_c       3.29264
_cell_angle_alpha    90
_cell_angle_beta     90
_cell_angle_gamma    90

_symmetry_Int_Tables_number  25
_chemical_formula_structural  B2O
_chemical_formula_sum  B2O
_cell_volume  32.85674788725751
_cell_formula_units_Z  1
loop_
  _symmetry_equiv_pos_site_id
 _symmetry_equiv_pos_as_xyz
 1  'x, y, z'
loop_
 _atom_site_type_symbol
 _atom_site_label
 _atom_site_symmetry_multiplicity
 _atom_site_fract_x
 _atom_site_fract_y
 _atom_site_fract_z
 _atom_site_fract_occupancy
 B  B1  1  0.03158  0.00000  0.74830  1
 B  B2  1  0.03158  0.00000  0.25170  1
 O  O1  1  0.33684  0.00000  0.00000  1
