CIF file written using JARVIS-Tools package.
data_BO2
_symmetry_space_group_name_H-M  'Pmmm'
_cell_length_a       2.31329
_cell_length_b       2.90105
_cell_length_c       3.78609
_cell_angle_alpha    90
_cell_angle_beta     90
_cell_angle_gamma    90

_symmetry_Int_Tables_number  47
_chemical_formula_structural  BO2
_chemical_formula_sum  BO2
_cell_volume  25.408290473138024
_cell_formula_units_Z  1
loop_
  _symmetry_equiv_pos_site_id
 _symmetry_equiv_pos_as_xyz
 1  'x, y, z'
loop_
 _atom_site_type_symbol
 _atom_site_label
 _atom_site_symmetry_multiplicity
 _atom_site_fract_x
 _atom_site_fract_y
 _atom_site_fract_z
 _atom_site_fract_occupancy
 B  B1  1  0.46666  0.00000  0.00000  1
 O  O1  1  -0.03333  0.00000  0.25062  1
 O  O2  1  -0.03333  0.00000  0.74939  1
