CIF file written using JARVIS-Tools package.
data_MnNiP2O7
_symmetry_space_group_name_H-M  'C2'
_cell_length_a       4.51175
_cell_length_b       6.5536
_cell_length_c       8.37114
_cell_angle_alpha    89.9975
_cell_angle_beta     89.9996
_cell_angle_gamma    102.856

_symmetry_Int_Tables_number  5
_chemical_formula_structural  MnNiP2O7
_chemical_formula_sum  Mn2Ni2P4O4
_cell_volume  241.31401662627573
_cell_formula_units_Z  2
loop_
  _symmetry_equiv_pos_site_id
 _symmetry_equiv_pos_as_xyz
 1  'x, y, z'
loop_
 _atom_site_type_symbol
 _atom_site_label
 _atom_site_symmetry_multiplicity
 _atom_site_fract_x
 _atom_site_fract_y
 _atom_site_fract_z
 _atom_site_fract_occupancy
 Mn  Mn1  1  0.53825  0.71349  0.70003  1
 Mn  Mn2  1  0.53824  0.21349  0.20003  1
 Ni  Ni1  1  0.53841  0.71346  0.32149  1
 Ni  Ni2  1  0.53841  0.21346  0.82149  1
 O  O1  1  0.03825  0.71342  0.95680  1
 O  O2  1  0.03825  0.21343  0.45680  1
 O  O3  1  0.82351  0.33775  0.00675  1
 O  O4  1  0.30396  0.00823  0.65478  1
 O  O5  1  0.77266  0.41868  0.65476  1
 O  O6  1  0.30396  0.50823  0.15478  1
 O  O7  1  0.32291  0.46930  0.85112  1
 O  O8  1  0.32291  0.96930  0.35112  1
 O  O9  1  0.75381  0.95765  0.85109  1
 O  O10  1  0.77266  0.91868  0.15476  1
 O  O11  1  0.25319  0.08910  0.00673  1
 O  O12  1  0.25319  0.58911  0.50673  1
 O  O13  1  0.75381  0.45765  0.35109  1
 O  O14  1  0.82351  0.83776  0.50675  1
 P  P1  1  0.94716  0.42964  0.49821  1
 P  P2  1  0.94716  0.92964  0.99821  1
 P  P3  1  0.12949  0.99727  0.49823  1
 P  P4  1  0.12949  0.49726  0.99823  1
