CIF file written using JARVIS-Tools package.
data_LiCr4InS8
_symmetry_space_group_name_H-M  'R3m'
_cell_length_a       7.30695
_cell_length_b       7.30695
_cell_length_c       7.30695
_cell_angle_alpha    57.9939
_cell_angle_beta     57.9939
_cell_angle_gamma    57.9939

_symmetry_Int_Tables_number  160
_chemical_formula_structural  LiCr4InS8
_chemical_formula_sum  LiCr4InS8
_cell_volume  263.16792039759434
_cell_formula_units_Z  1
loop_
  _symmetry_equiv_pos_site_id
 _symmetry_equiv_pos_as_xyz
 1  'x, y, z'
loop_
 _atom_site_type_symbol
 _atom_site_label
 _atom_site_symmetry_multiplicity
 _atom_site_fract_x
 _atom_site_fract_y
 _atom_site_fract_z
 _atom_site_fract_occupancy
 Cr  Cr1  1  0.49024  0.00294  0.00294  1
 Cr  Cr2  1  0.00294  0.00294  0.49024  1
 Cr  Cr3  1  0.00294  0.49024  0.00294  1
 Cr  Cr4  1  0.62740  0.62740  0.62740  1
 In  In1  1  0.00508  0.00508  0.00508  1
 Li  Li1  1  0.36961  0.36961  0.36961  1
 S  S1  1  0.23091  0.74582  0.74582  1
 S  S2  1  0.74582  0.74582  0.23091  1
 S  S3  1  0.74582  0.23091  0.74582  1
 S  S4  1  0.75853  0.75853  0.75853  1
 S  S5  1  0.77075  0.25655  0.25655  1
 S  S6  1  0.25655  0.25655  0.77075  1
 S  S7  1  0.25655  0.77075  0.25655  1
 S  S8  1  0.23686  0.23686  0.23686  1
