CIF file written using JARVIS-Tools package.
data_LiRuRhO4
_symmetry_space_group_name_H-M  'Imma'
_cell_length_a       6.01266
_cell_length_b       6.01266
_cell_length_c       6.01266
_cell_angle_alpha    121.464
_cell_angle_beta     118.262
_cell_angle_gamma    90.2597

_symmetry_Int_Tables_number  74
_chemical_formula_structural  LiRuRhO4
_chemical_formula_sum  Li2Ru2Rh2O8
_cell_volume  153.87112489469462
_cell_formula_units_Z  2
loop_
  _symmetry_equiv_pos_site_id
 _symmetry_equiv_pos_as_xyz
 1  'x, y, z'
loop_
 _atom_site_type_symbol
 _atom_site_label
 _atom_site_symmetry_multiplicity
 _atom_site_fract_x
 _atom_site_fract_y
 _atom_site_fract_z
 _atom_site_fract_occupancy
 Li  Li1  1  0.87769  0.62769  0.25000  1
 Li  Li2  1  0.12231  0.37231  0.75000  1
 O  O1  1  0.72330  0.24326  0.48005  1
 O  O2  1  0.26321  0.24326  0.01995  1
 O  O3  1  0.26221  0.24248  0.48027  1
 O  O4  1  0.26221  0.78195  0.01973  1
 O  O5  1  0.27670  0.75674  0.51995  1
 O  O6  1  0.73679  0.75674  0.98005  1
 O  O7  1  0.73779  0.75752  0.51973  1
 O  O8  1  0.73779  0.21805  0.98027  1
 Rh  Rh1  1  0.00000  0.00000  0.00000  1
 Rh  Rh2  1  0.50000  -0.00000  0.50000  1
 Ru  Ru1  1  0.50000  0.00000  -0.00000  1
 Ru  Ru2  1  0.50000  0.50000  0.50000  1
