CIF file written using JARVIS-Tools package.
data_La2FeCoO6
_symmetry_space_group_name_H-M  'P2_1/c'
_cell_length_a       5.44936
_cell_length_b       5.4984
_cell_length_c       9.47048
_cell_angle_alpha    54.5928
_cell_angle_beta     90
_cell_angle_gamma    90

_symmetry_Int_Tables_number  14
_chemical_formula_structural  La2FeCoO6
_chemical_formula_sum  La4Fe2Co2O2
_cell_volume  231.2812609289818
_cell_formula_units_Z  2
loop_
  _symmetry_equiv_pos_site_id
 _symmetry_equiv_pos_as_xyz
 1  'x, y, z'
loop_
 _atom_site_type_symbol
 _atom_site_label
 _atom_site_symmetry_multiplicity
 _atom_site_fract_x
 _atom_site_fract_y
 _atom_site_fract_z
 _atom_site_fract_occupancy
 Co  Co1  1  0.00000  0.00000  0.50000  1
 Co  Co2  1  0.50000  0.00000  0.00000  1
 Fe  Fe1  1  0.00000  0.50000  0.00000  1
 Fe  Fe2  1  0.50000  0.50000  0.50000  1
 La  La1  1  0.97854  0.24559  0.75060  1
 La  La2  1  0.47854  0.75441  0.74940  1
 La  La3  1  0.02146  0.75441  0.24940  1
 La  La4  1  0.52146  0.24559  0.25060  1
 O  O1  1  0.50484  0.30918  0.75301  1
 O  O2  1  0.72297  0.76239  0.96689  1
 O  O3  1  0.49516  0.69082  0.24699  1
 O  O4  1  0.99516  0.30918  0.25301  1
 O  O5  1  0.00484  0.69082  0.74699  1
 O  O6  1  0.27148  0.81023  0.46714  1
 O  O7  1  0.27703  0.23761  0.03311  1
 O  O8  1  0.77703  0.76239  0.46689  1
 O  O9  1  0.72852  0.18977  0.53286  1
 O  O10  1  0.77148  0.18977  0.03286  1
 O  O11  1  0.22852  0.81023  0.96714  1
 O  O12  1  0.22297  0.23761  0.53311  1
