CIF file written using JARVIS-Tools package.
data_Dy2Ga3Fe14C2
_symmetry_space_group_name_H-M  'C2/m'
_cell_length_a       6.43171
_cell_length_b       6.4317
_cell_length_c       6.4682
_cell_angle_alpha    83.2888
_cell_angle_beta     83.2887
_cell_angle_gamma    82.4523

_symmetry_Int_Tables_number  12
_chemical_formula_structural  Dy2Ga3Fe14C2
_chemical_formula_sum  Dy2Ga3Fe4C2
_cell_volume  262.02913778122166
_cell_formula_units_Z  1
loop_
  _symmetry_equiv_pos_site_id
 _symmetry_equiv_pos_as_xyz
 1  'x, y, z'
loop_
 _atom_site_type_symbol
 _atom_site_label
 _atom_site_symmetry_multiplicity
 _atom_site_fract_x
 _atom_site_fract_y
 _atom_site_fract_z
 _atom_site_fract_occupancy
 C  C1  1  -0.00000  0.50000  0.50000  1
 C  C2  1  0.50000  -0.00000  0.50000  1
 Dy  Dy1  1  0.34854  0.34854  0.33664  1
 Dy  Dy2  1  0.65146  0.65146  0.66336  1
 Fe  Fe1  1  0.84664  0.35054  0.34656  1
 Fe  Fe2  1  0.35054  0.84664  0.34656  1
 Fe  Fe3  1  0.09127  0.09127  0.09482  1
 Fe  Fe4  1  0.90873  0.90873  0.90518  1
 Fe  Fe5  1  0.65249  0.65249  0.15424  1
 Fe  Fe6  1  0.64946  0.15336  0.65344  1
 Fe  Fe7  1  0.15336  0.64946  0.65344  1
 Fe  Fe8  1  0.34751  0.34751  0.84576  1
 Fe  Fe9  1  0.70315  0.29685  0.00000  1
 Fe  Fe10  1  0.28385  0.99775  0.71687  1
 Fe  Fe11  1  0.00225  0.71615  0.28313  1
 Fe  Fe12  1  0.71615  0.00225  0.28313  1
 Fe  Fe13  1  0.99775  0.28385  0.71687  1
 Fe  Fe14  1  0.29685  0.70315  0.00000  1
 Ga  Ga1  1  0.50000  -0.00000  0.00000  1
 Ga  Ga2  1  0.00000  0.00000  0.50000  1
 Ga  Ga3  1  -0.00000  0.50000  0.00000  1
