CIF file written using JARVIS-Tools package.
data_Cr3Cu2NiSe8
_symmetry_space_group_name_H-M  'R-3m'
_cell_length_a       7.26949
_cell_length_b       7.33817
_cell_length_c       7.26948
_cell_angle_alpha    90
_cell_angle_beta     60
_cell_angle_gamma    119.691

_symmetry_Int_Tables_number  166
_chemical_formula_structural  Cr3Cu2NiSe8
_chemical_formula_sum  Cr3Cu2NiSe8
_cell_volume  275.4820971911971
_cell_formula_units_Z  1
loop_
  _symmetry_equiv_pos_site_id
 _symmetry_equiv_pos_as_xyz
 1  'x, y, z'
loop_
 _atom_site_type_symbol
 _atom_site_label
 _atom_site_symmetry_multiplicity
 _atom_site_fract_x
 _atom_site_fract_y
 _atom_site_fract_z
 _atom_site_fract_occupancy
 Cr  Cr1  1  0.50000  0.50000  0.50000  1
 Cr  Cr2  1  -0.00000  0.50000  0.00000  1
 Cr  Cr3  1  -0.00000  0.50000  0.50000  1
 Cu  Cu1  1  0.24785  0.12177  0.12608  1
 Cu  Cu2  1  0.75215  0.87823  0.87392  1
 Ni  Ni1  1  0.50000  0.00000  0.50000  1
 Se  Se1  1  0.98411  0.72616  0.25795  1
 Se  Se2  1  0.97824  0.25412  0.26088  1
 Se  Se3  1  0.51500  0.25412  0.72412  1
 Se  Se4  1  0.51500  0.25412  0.26088  1
 Se  Se5  1  0.01589  0.27384  0.74205  1
 Se  Se6  1  0.02176  0.74588  0.73912  1
 Se  Se7  1  0.48500  0.74588  0.27588  1
 Se  Se8  1  0.48500  0.74588  0.73912  1
