CIF file written using JARVIS-Tools package.
data_MnCu2SbO4
_symmetry_space_group_name_H-M  'P-3m1'
_cell_length_a       3.2914
_cell_length_b       3.2914
_cell_length_c       11.735
_cell_angle_alpha    90
_cell_angle_beta     90
_cell_angle_gamma    120

_symmetry_Int_Tables_number  164
_chemical_formula_structural  MnCu2SbO4
_chemical_formula_sum  MnCu2SbO4
_cell_volume  110.09732993549906
_cell_formula_units_Z  1
loop_
  _symmetry_equiv_pos_site_id
 _symmetry_equiv_pos_as_xyz
 1  'x, y, z'
loop_
 _atom_site_type_symbol
 _atom_site_label
 _atom_site_symmetry_multiplicity
 _atom_site_fract_x
 _atom_site_fract_y
 _atom_site_fract_z
 _atom_site_fract_occupancy
 Cu  Cu1  1  0.33333  0.66667  0.26830  1
 Cu  Cu2  1  0.66667  0.33333  0.73170  1
 Mn  Mn1  1  0.00000  0.00000  0.50000  1
 O  O1  1  0.33333  0.66667  0.42329  1
 O  O2  1  0.66667  0.33333  0.57671  1
 O  O3  1  0.66667  0.33333  0.88877  1
 O  O4  1  0.33333  0.66667  0.11123  1
 Sb  Sb1  1  0.00000  0.00000  0.00000  1
