CIF file written using JARVIS-Tools package.
data_CrCoN2
_symmetry_space_group_name_H-M  'P6_3/mmc'
_cell_length_a       2.74863
_cell_length_b       2.74845
_cell_length_c       9.8446
_cell_angle_alpha    90
_cell_angle_beta     90
_cell_angle_gamma    120

_symmetry_Int_Tables_number  194
_chemical_formula_structural  CrCoN2
_chemical_formula_sum  Cr2Co2N4
_cell_volume  64.40727795758843
_cell_formula_units_Z  2
loop_
  _symmetry_equiv_pos_site_id
 _symmetry_equiv_pos_as_xyz
 1  'x, y, z'
loop_
 _atom_site_type_symbol
 _atom_site_label
 _atom_site_symmetry_multiplicity
 _atom_site_fract_x
 _atom_site_fract_y
 _atom_site_fract_z
 _atom_site_fract_occupancy
 Co  Co1  1  0.00000  0.00001  0.00000  1
 Co  Co2  1  0.00000  0.00001  0.50000  1
 Cr  Cr1  1  0.33339  0.66678  0.25000  1
 Cr  Cr2  1  0.66662  0.33325  0.75000  1
 N  N1  1  0.66676  0.33352  0.12567  1
 N  N2  1  0.33325  0.66652  0.87433  1
 N  N3  1  0.33325  0.66652  0.62567  1
 N  N4  1  0.66676  0.33352  0.37433  1
