CIF file written using JARVIS-Tools package.
data_Zn4FeS5
_symmetry_space_group_name_H-M  'R3m'
_cell_length_a       15.8239
_cell_length_b       15.8239
_cell_length_c       15.8239
_cell_angle_alpha    13.8842
_cell_angle_beta     13.8842
_cell_angle_gamma    13.8842

_symmetry_Int_Tables_number  160
_chemical_formula_structural  Zn4FeS5
_chemical_formula_sum  Zn4FeS5
_cell_volume  198.54805656536465
_cell_formula_units_Z  1
loop_
  _symmetry_equiv_pos_site_id
 _symmetry_equiv_pos_as_xyz
 1  'x, y, z'
loop_
 _atom_site_type_symbol
 _atom_site_label
 _atom_site_symmetry_multiplicity
 _atom_site_fract_x
 _atom_site_fract_y
 _atom_site_fract_z
 _atom_site_fract_occupancy
 Fe  Fe1  1  0.40039  0.40039  0.40039  1
 S  S1  1  0.95027  0.95027  0.95027  1
 S  S2  1  0.54999  0.54999  0.54999  1
 S  S3  1  0.14969  0.14969  0.14969  1
 S  S4  1  0.74925  0.74925  0.74925  1
 S  S5  1  0.35090  0.35090  0.35090  1
 Zn  Zn1  1  0.00034  0.00034  0.00034  1
 Zn  Zn2  1  0.60003  0.60003  0.60003  1
 Zn  Zn3  1  0.19973  0.19973  0.19973  1
 Zn  Zn4  1  0.79941  0.79941  0.79941  1
