CIF file written using JARVIS-Tools package.
data_CaCo3Si4O12
_symmetry_space_group_name_H-M  'C2'
_cell_length_a       5.20425
_cell_length_b       6.63891
_cell_length_c       6.63893
_cell_angle_alpha    84.5548
_cell_angle_beta     78.0329
_cell_angle_gamma    78.0339

_symmetry_Int_Tables_number  5
_chemical_formula_structural  CaCo3Si4O12
_chemical_formula_sum  CaCo3Si4O2
_cell_volume  219.19411999245503
_cell_formula_units_Z  1
loop_
  _symmetry_equiv_pos_site_id
 _symmetry_equiv_pos_as_xyz
 1  'x, y, z'
loop_
 _atom_site_type_symbol
 _atom_site_label
 _atom_site_symmetry_multiplicity
 _atom_site_fract_x
 _atom_site_fract_y
 _atom_site_fract_z
 _atom_site_fract_occupancy
 Ca  Ca1  1  0.75000  0.70040  0.29960  1
 Co  Co1  1  0.75000  0.09279  0.90721  1
 Co  Co2  1  0.25000  0.90320  0.09680  1
 Co  Co3  1  0.25000  0.24262  0.75739  1
 O  O1  1  0.64769  0.78469  0.96996  1
 O  O2  1  0.52126  0.38964  0.31191  1
 O  O3  1  0.35650  0.20049  0.03792  1
 O  O4  1  0.14350  0.96208  0.79951  1
 O  O5  1  0.85231  0.03004  0.21531  1
 O  O6  1  0.63257  0.13437  0.62147  1
 O  O7  1  0.17028  0.61263  0.10733  1
 O  O8  1  0.49396  0.61994  0.66856  1
 O  O9  1  0.86743  0.37853  0.86562  1
 O  O10  1  0.00603  0.33144  0.38006  1
 O  O11  1  0.32973  0.89267  0.38737  1
 O  O12  1  0.97874  0.68810  0.61036  1
 Si  Si1  1  0.23371  0.79866  0.61560  1
 Si  Si2  1  0.26629  0.38440  0.20134  1
 Si  Si3  1  0.75846  0.20435  0.38635  1
 Si  Si4  1  0.74154  0.61365  0.79565  1
