CIF file written using JARVIS-Tools package.
data_S2N
_symmetry_space_group_name_H-M  'P2/m'
_cell_length_a       3.7677
_cell_length_b       3.21349
_cell_length_c       4.99176
_cell_angle_alpha    90
_cell_angle_beta     92.7644
_cell_angle_gamma    90

_symmetry_Int_Tables_number  10
_chemical_formula_structural  S2N
_chemical_formula_sum  S2N
_cell_volume  60.367244880349446
_cell_formula_units_Z  1
loop_
  _symmetry_equiv_pos_site_id
 _symmetry_equiv_pos_as_xyz
 1  'x, y, z'
loop_
 _atom_site_type_symbol
 _atom_site_label
 _atom_site_symmetry_multiplicity
 _atom_site_fract_x
 _atom_site_fract_y
 _atom_site_fract_z
 _atom_site_fract_occupancy
 N  N1  1  0.80004  0.00000  0.13332  1
 S  S1  1  -0.40808  0.00000  -0.13824  1
 S  S2  1  0.00803  0.00000  0.40492  1
