CIF file written using JARVIS-Tools package.
data_VFe2Se4
_symmetry_space_group_name_H-M  'Cm'
_cell_length_a       6.60437
_cell_length_b       6.60437
_cell_length_c       6.04816
_cell_angle_alpha    64.7987
_cell_angle_beta     64.7987
_cell_angle_gamma    29.9337

_symmetry_Int_Tables_number  8
_chemical_formula_structural  VFe2Se4
_chemical_formula_sum  VFe2Se4
_cell_volume  118.16311038233289
_cell_formula_units_Z  1
loop_
  _symmetry_equiv_pos_site_id
 _symmetry_equiv_pos_as_xyz
 1  'x, y, z'
loop_
 _atom_site_type_symbol
 _atom_site_label
 _atom_site_symmetry_multiplicity
 _atom_site_fract_x
 _atom_site_fract_y
 _atom_site_fract_z
 _atom_site_fract_occupancy
 Fe  Fe1  1  0.50241  0.50241  0.49797  1
 Fe  Fe2  1  0.24043  0.24043  0.81689  1
 Se  Se1  1  0.86015  0.86015  0.48698  1
 Se  Se2  1  0.14023  0.14023  0.52763  1
 Se  Se3  1  0.39276  0.39276  0.93827  1
 Se  Se4  1  0.60826  0.60826  0.04652  1
 V  V1  1  0.75575  0.75575  0.18573  1
