CIF file written using JARVIS-Tools package.
data_Yb2USe3O2
_symmetry_space_group_name_H-M  'I4mm'
_cell_length_a       11.1865
_cell_length_b       11.1865
_cell_length_c       11.1865
_cell_angle_alpha    160.161
_cell_angle_beta     160.161
_cell_angle_gamma    28.2008

_symmetry_Int_Tables_number  107
_chemical_formula_structural  Yb2USe3O2
_chemical_formula_sum  Yb2USe3O2
_cell_volume  161.15884600072314
_cell_formula_units_Z  1
loop_
  _symmetry_equiv_pos_site_id
 _symmetry_equiv_pos_as_xyz
 1  'x, y, z'
loop_
 _atom_site_type_symbol
 _atom_site_label
 _atom_site_symmetry_multiplicity
 _atom_site_fract_x
 _atom_site_fract_y
 _atom_site_fract_z
 _atom_site_fract_occupancy
 O  O1  1  0.74025  0.24025  0.50000  1
 O  O2  1  0.24025  0.74025  0.50000  1
 Se  Se1  1  0.86340  0.86340  0.00000  1
 Se  Se2  1  0.12811  0.12811  -0.00000  1
 Se  Se3  1  0.53398  0.53398  0.00000  1
 U  U1  1  0.69466  0.69466  -0.00000  1
 Yb  Yb1  1  0.99316  0.99316  -0.00000  1
 Yb  Yb2  1  0.30617  0.30617  -0.00000  1
