CIF file written using JARVIS-Tools package.
data_Cr4CdFeS8
_symmetry_space_group_name_H-M  'F-43m'
_cell_length_a       7.17274
_cell_length_b       7.17274
_cell_length_c       7.17274
_cell_angle_alpha    60
_cell_angle_beta     60
_cell_angle_gamma    60

_symmetry_Int_Tables_number  216
_chemical_formula_structural  Cr4CdFeS8
_chemical_formula_sum  Cr4CdFeS8
_cell_volume  260.9402669692216
_cell_formula_units_Z  1
loop_
  _symmetry_equiv_pos_site_id
 _symmetry_equiv_pos_as_xyz
 1  'x, y, z'
loop_
 _atom_site_type_symbol
 _atom_site_label
 _atom_site_symmetry_multiplicity
 _atom_site_fract_x
 _atom_site_fract_y
 _atom_site_fract_z
 _atom_site_fract_occupancy
 Cd  Cd1  1  0.75000  0.75000  0.75000  1
 Cr  Cr1  1  0.62401  0.12533  0.12533  1
 Cr  Cr2  1  0.12533  0.62401  0.12533  1
 Cr  Cr3  1  0.12533  0.12533  0.62401  1
 Cr  Cr4  1  0.12533  0.12533  0.12533  1
 Fe  Fe1  1  0.50000  0.50000  0.50000  1
 S  S1  1  0.32780  0.89073  0.89073  1
 S  S2  1  0.89073  0.32780  0.89073  1
 S  S3  1  0.89073  0.89073  0.32780  1
 S  S4  1  0.89073  0.89073  0.89073  1
 S  S5  1  0.90056  0.36648  0.36648  1
 S  S6  1  0.36648  0.90056  0.36648  1
 S  S7  1  0.36648  0.36648  0.90056  1
 S  S8  1  0.36648  0.36648  0.36648  1
