CIF file written using JARVIS-Tools package.
data_S2N
_symmetry_space_group_name_H-M  'P4/mmm'
_cell_length_a       5.9697
_cell_length_b       3.40678
_cell_length_c       3.39797
_cell_angle_alpha    90
_cell_angle_beta     90
_cell_angle_gamma    90

_symmetry_Int_Tables_number  123
_chemical_formula_structural  S2N
_chemical_formula_sum  S2N
_cell_volume  69.10598676709684
_cell_formula_units_Z  1
loop_
  _symmetry_equiv_pos_site_id
 _symmetry_equiv_pos_as_xyz
 1  'x, y, z'
loop_
 _atom_site_type_symbol
 _atom_site_label
 _atom_site_symmetry_multiplicity
 _atom_site_fract_x
 _atom_site_fract_y
 _atom_site_fract_z
 _atom_site_fract_occupancy
 N  N1  1  0.00000  0.09065  0.00000  1
 S  S1  1  0.25618  0.09068  0.00000  1
 S  S2  1  0.74382  0.09068  0.00000  1
