CIF file written using JARVIS-Tools package.
data_TiCrAgS4
_symmetry_space_group_name_H-M  'Cm'
_cell_length_a       7.12093
_cell_length_b       7.12093
_cell_length_c       5.9529
_cell_angle_alpha    66.7863
_cell_angle_beta     66.7863
_cell_angle_gamma    28.2508

_symmetry_Int_Tables_number  8
_chemical_formula_structural  TiCrAgS4
_chemical_formula_sum  TiCrAgS4
_cell_volume  130.5446970547359
_cell_formula_units_Z  1
loop_
  _symmetry_equiv_pos_site_id
 _symmetry_equiv_pos_as_xyz
 1  'x, y, z'
loop_
 _atom_site_type_symbol
 _atom_site_label
 _atom_site_symmetry_multiplicity
 _atom_site_fract_x
 _atom_site_fract_y
 _atom_site_fract_z
 _atom_site_fract_occupancy
 Ag  Ag1  1  0.49912  0.49912  0.50464  1
 Cr  Cr1  1  0.75221  0.75221  0.22953  1
 S  S1  1  0.36596  0.36596  0.97887  1
 S  S2  1  0.63269  0.63269  0.02340  1
 S  S3  1  0.85232  0.85232  0.47702  1
 S  S4  1  0.14964  0.14964  0.50458  1
 Ti  Ti1  1  0.24806  0.24806  0.78198  1
