CIF file written using JARVIS-Tools package.
data_Ba2I
_symmetry_space_group_name_H-M  'Pmmm'
_cell_length_a       4.28559
_cell_length_b       4.10227
_cell_length_c       9.5803
_cell_angle_alpha    90
_cell_angle_beta     90
_cell_angle_gamma    90

_symmetry_Int_Tables_number  47
_chemical_formula_structural  Ba2I
_chemical_formula_sum  Ba2I
_cell_volume  168.4280242189259
_cell_formula_units_Z  1
loop_
  _symmetry_equiv_pos_site_id
 _symmetry_equiv_pos_as_xyz
 1  'x, y, z'
loop_
 _atom_site_type_symbol
 _atom_site_label
 _atom_site_symmetry_multiplicity
 _atom_site_fract_x
 _atom_site_fract_y
 _atom_site_fract_z
 _atom_site_fract_occupancy
 Ba  Ba1  1  -0.03333  0.00000  0.71399  1
 Ba  Ba2  1  -0.03333  0.00000  0.28601  1
 I  I1  1  0.46667  0.00000  0.00000  1
