CIF file written using JARVIS-Tools package.
data_Ba2I
_symmetry_space_group_name_H-M  'R-3m'
_cell_length_a       4.48346
_cell_length_b       9.15859
_cell_length_c       4.48264
_cell_angle_alpha    104.204
_cell_angle_beta     119.984
_cell_angle_gamma    75.8228

_symmetry_Int_Tables_number  166
_chemical_formula_structural  Ba2I
_chemical_formula_sum  Ba2I
_cell_volume  152.91013938582427
_cell_formula_units_Z  1
loop_
  _symmetry_equiv_pos_site_id
 _symmetry_equiv_pos_as_xyz
 1  'x, y, z'
loop_
 _atom_site_type_symbol
 _atom_site_label
 _atom_site_symmetry_multiplicity
 _atom_site_fract_x
 _atom_site_fract_y
 _atom_site_fract_z
 _atom_site_fract_occupancy
 Ba  Ba1  1  0.30355  0.54109  0.50713  1
 Ba  Ba2  1  0.83071  0.95830  0.97856  1
 I  I1  1  0.06712  0.24970  0.74283  1
