CIF file written using JARVIS-Tools package.
data_NaInSn4
_symmetry_space_group_name_H-M  'I422'
_cell_length_a       6.06244
_cell_length_b       6.06244
_cell_length_c       6.06243
_cell_angle_alpha    104.239
_cell_angle_beta     104.239
_cell_angle_gamma    120.535

_symmetry_Int_Tables_number  97
_chemical_formula_structural  NaInSn4
_chemical_formula_sum  NaInSn4
_cell_volume  166.64846152284872
_cell_formula_units_Z  1
loop_
  _symmetry_equiv_pos_site_id
 _symmetry_equiv_pos_as_xyz
 1  'x, y, z'
loop_
 _atom_site_type_symbol
 _atom_site_label
 _atom_site_symmetry_multiplicity
 _atom_site_fract_x
 _atom_site_fract_y
 _atom_site_fract_z
 _atom_site_fract_occupancy
 In  In1  1  0.00000  0.00000  0.00000  1
 Na  Na1  1  0.50000  0.50000  -0.00000  1
 Sn  Sn1  1  0.60317  0.10317  0.20633  1
 Sn  Sn2  1  0.89683  0.39683  0.79367  1
 Sn  Sn3  1  0.39683  0.60317  0.50000  1
 Sn  Sn4  1  0.10317  0.89683  0.50000  1
