CIF file written using JARVIS-Tools package.
data_BaI2
_symmetry_space_group_name_H-M  'Pmmm'
_cell_length_a       4.93891
_cell_length_b       5.4629
_cell_length_c       8.76557
_cell_angle_alpha    90
_cell_angle_beta     90
_cell_angle_gamma    90

_symmetry_Int_Tables_number  47
_chemical_formula_structural  BaI2
_chemical_formula_sum  BaI2
_cell_volume  236.50175680189278
_cell_formula_units_Z  1
loop_
  _symmetry_equiv_pos_site_id
 _symmetry_equiv_pos_as_xyz
 1  'x, y, z'
loop_
 _atom_site_type_symbol
 _atom_site_label
 _atom_site_symmetry_multiplicity
 _atom_site_fract_x
 _atom_site_fract_y
 _atom_site_fract_z
 _atom_site_fract_occupancy
 Ba  Ba1  1  0.46669  0.00000  0.00000  1
 I  I1  1  -0.03334  0.00000  0.74140  1
 I  I2  1  -0.03334  0.00000  0.25860  1
