CIF file written using JARVIS-Tools package.
data_Ge2Sb2Te5
_symmetry_space_group_name_H-M  'Cm'
_cell_length_a       7.56357
_cell_length_b       7.56357
_cell_length_c       9.78702
_cell_angle_alpha    48.9509
_cell_angle_beta     48.9509
_cell_angle_gamma    47.8011

_symmetry_Int_Tables_number  8
_chemical_formula_structural  Ge2Sb2Te5
_chemical_formula_sum  Ge2Sb2Te5
_cell_volume  288.5747881125033
_cell_formula_units_Z  1
loop_
  _symmetry_equiv_pos_site_id
 _symmetry_equiv_pos_as_xyz
 1  'x, y, z'
loop_
 _atom_site_type_symbol
 _atom_site_label
 _atom_site_symmetry_multiplicity
 _atom_site_fract_x
 _atom_site_fract_y
 _atom_site_fract_z
 _atom_site_fract_occupancy
 Ge  Ge1  1  0.50882  0.50882  0.00662  1
 Ge  Ge2  1  0.72095  0.72095  0.19967  1
 Sb  Sb1  1  0.88889  0.88889  0.42940  1
 Sb  Sb2  1  0.10828  0.10828  0.57819  1
 Te  Te1  1  0.58886  0.58886  0.59908  1
 Te  Te2  1  0.78655  0.78655  0.81152  1
 Te  Te3  1  -0.00215  -0.00215  -0.00358  1
 Te  Te4  1  0.19923  0.19923  0.19039  1
 Te  Te5  1  0.40056  0.40056  0.38870  1
