CIF file written using JARVIS-Tools package.
data_Ba2I
_symmetry_space_group_name_H-M  'Amm2'
_cell_length_a       4.77408
_cell_length_b       7.25699
_cell_length_c       4.72262
_cell_angle_alpha    71.0101
_cell_angle_beta     90.0001
_cell_angle_gamma    89.9997

_symmetry_Int_Tables_number  38
_chemical_formula_structural  Ba2I
_chemical_formula_sum  Ba2I
_cell_volume  154.71260416574603
_cell_formula_units_Z  1
loop_
  _symmetry_equiv_pos_site_id
 _symmetry_equiv_pos_as_xyz
 1  'x, y, z'
loop_
 _atom_site_type_symbol
 _atom_site_label
 _atom_site_symmetry_multiplicity
 _atom_site_fract_x
 _atom_site_fract_y
 _atom_site_fract_z
 _atom_site_fract_occupancy
 Ba  Ba1  1  0.54562  0.08192  0.45575  1
 Ba  Ba2  1  0.04563  0.48915  0.75210  1
 I  I1  1  0.04562  0.91203  0.04070  1
