CIF file written using JARVIS-Tools package.
data_LiCu6OF11
_symmetry_space_group_name_H-M  'P1'
_cell_length_a       5.67507
_cell_length_b       4.72503
_cell_length_c       8.1674
_cell_angle_alpha    95.0244
_cell_angle_beta     87.5586
_cell_angle_gamma    95.213

_symmetry_Int_Tables_number  1
_chemical_formula_structural  LiCu6OF11
_chemical_formula_sum  LiCu6OF
_cell_volume  217.13140225458855
_cell_formula_units_Z  1
loop_
  _symmetry_equiv_pos_site_id
 _symmetry_equiv_pos_as_xyz
 1  'x, y, z'
loop_
 _atom_site_type_symbol
 _atom_site_label
 _atom_site_symmetry_multiplicity
 _atom_site_fract_x
 _atom_site_fract_y
 _atom_site_fract_z
 _atom_site_fract_occupancy
 Cu  Cu1  1  0.01392  0.98726  0.97520  1
 Cu  Cu2  1  0.50990  0.48968  0.00346  1
 Cu  Cu3  1  0.35091  0.97880  0.31449  1
 Cu  Cu4  1  0.71278  0.63805  0.36721  1
 Cu  Cu5  1  0.18170  0.49632  0.65604  1
 Cu  Cu6  1  0.67565  0.00177  0.67952  1
 F  F1  1  0.48530  0.28658  0.78331  1
 F  F2  1  0.29058  0.19100  0.08588  1
 F  F3  1  0.97128  0.20727  0.74990  1
 F  F4  1  0.82953  0.26520  0.08796  1
 F  F5  1  0.17880  0.28054  0.43715  1
 F  F6  1  0.01811  0.80933  0.25906  1
 F  F7  1  0.72062  0.77287  0.90472  1
 F  F8  1  0.86921  0.70727  0.57313  1
 F  F9  1  0.65222  0.20870  0.40631  1
 F  F10  1  0.20588  0.70537  0.87492  1
 F  F11  1  0.40679  0.78329  0.56556  1
 Li  Li1  1  0.93925  0.19342  0.28689  1
 O  O1  1  0.51258  0.69173  0.20805  1
