CIF file written using JARVIS-Tools package.
data_LiMnO2
_symmetry_space_group_name_H-M  'R-3m'
_cell_length_a       5.18576
_cell_length_b       5.18576
_cell_length_c       5.18576
_cell_angle_alpha    33.8833
_cell_angle_beta     33.8832
_cell_angle_gamma    33.8833

_symmetry_Int_Tables_number  166
_chemical_formula_structural  LiMnO2
_chemical_formula_sum  LiMnO2
_cell_volume  38.628486784824226
_cell_formula_units_Z  1
loop_
  _symmetry_equiv_pos_site_id
 _symmetry_equiv_pos_as_xyz
 1  'x, y, z'
loop_
 _atom_site_type_symbol
 _atom_site_label
 _atom_site_symmetry_multiplicity
 _atom_site_fract_x
 _atom_site_fract_y
 _atom_site_fract_z
 _atom_site_fract_occupancy
 Li  Li1  1  0.50000  0.50000  0.50000  1
 Mn  Mn1  1  0.00000  0.00000  0.00000  1
 O  O1  1  0.25754  0.25754  0.25754  1
 O  O2  1  0.74246  0.74245  0.74246  1
