CIF file written using JARVIS-Tools package.
data_P2Cl
_symmetry_space_group_name_H-M  'P6/mmm'
_cell_length_a       4.69755
_cell_length_b       4.69756
_cell_length_c       2.83878
_cell_angle_alpha    90
_cell_angle_beta     90
_cell_angle_gamma    120

_symmetry_Int_Tables_number  191
_chemical_formula_structural  P2Cl
_chemical_formula_sum  P2Cl
_cell_volume  54.25075898561845
_cell_formula_units_Z  1
loop_
  _symmetry_equiv_pos_site_id
 _symmetry_equiv_pos_as_xyz
 1  'x, y, z'
loop_
 _atom_site_type_symbol
 _atom_site_label
 _atom_site_symmetry_multiplicity
 _atom_site_fract_x
 _atom_site_fract_y
 _atom_site_fract_z
 _atom_site_fract_occupancy
 Cl  Cl1  1  0.00000  0.00000  0.00000  1
 P  P1  1  0.33333  0.66667  0.00000  1
 P  P2  1  0.66667  0.33333  0.00000  1
