CIF file written using JARVIS-Tools package.
data_Nd3Sn7
_symmetry_space_group_name_H-M  'Cmmm'
_cell_length_a       13.3171
_cell_length_b       13.3171
_cell_length_c       4.63413
_cell_angle_alpha    90
_cell_angle_beta     90
_cell_angle_gamma    160.263

_symmetry_Int_Tables_number  65
_chemical_formula_structural  Nd3Sn7
_chemical_formula_sum  Nd3Sn7
_cell_volume  277.5329793415505
_cell_formula_units_Z  1
loop_
  _symmetry_equiv_pos_site_id
 _symmetry_equiv_pos_as_xyz
 1  'x, y, z'
loop_
 _atom_site_type_symbol
 _atom_site_label
 _atom_site_symmetry_multiplicity
 _atom_site_fract_x
 _atom_site_fract_y
 _atom_site_fract_z
 _atom_site_fract_occupancy
 Nd  Nd1  1  0.81439  0.18561  0.00000  1
 Nd  Nd2  1  0.18561  0.81439  0.00000  1
 Nd  Nd3  1  0.00000  0.00000  0.00000  1
 Sn  Sn1  1  0.90406  0.09594  0.50000  1
 Sn  Sn2  1  0.09594  0.90406  0.50000  1
 Sn  Sn3  1  0.71117  0.28883  0.50000  1
 Sn  Sn4  1  0.28883  0.71117  0.50000  1
 Sn  Sn5  1  0.59529  0.40471  0.00000  1
 Sn  Sn6  1  0.40471  0.59529  0.00000  1
 Sn  Sn7  1  0.50000  0.50000  0.50000  1
