CIF file written using JARVIS-Tools package.
data_ScI3
_symmetry_space_group_name_H-M  'P6_3/mmc'
_cell_length_a       10.3763
_cell_length_b       10.3763
_cell_length_c       3.80779
_cell_angle_alpha    90
_cell_angle_beta     90
_cell_angle_gamma    120

_symmetry_Int_Tables_number  194
_chemical_formula_structural  ScI3
_chemical_formula_sum  Sc2I6
_cell_volume  355.0475078784155
_cell_formula_units_Z  2
loop_
  _symmetry_equiv_pos_site_id
 _symmetry_equiv_pos_as_xyz
 1  'x, y, z'
loop_
 _atom_site_type_symbol
 _atom_site_label
 _atom_site_symmetry_multiplicity
 _atom_site_fract_x
 _atom_site_fract_y
 _atom_site_fract_z
 _atom_site_fract_occupancy
 I  I1  1  0.21026  0.42051  0.25000  1
 I  I2  1  0.57949  0.78974  0.25000  1
 I  I3  1  0.21026  0.78974  0.25000  1
 I  I4  1  0.78974  0.57949  0.75000  1
 I  I5  1  0.42051  0.21026  0.75000  1
 I  I6  1  0.78974  0.21026  0.75000  1
 Sc  Sc1  1  0.33333  0.66667  0.75000  1
 Sc  Sc2  1  0.66667  0.33333  0.25000  1
