CIF file written using JARVIS-Tools package.
data_AlCr3O8
_symmetry_space_group_name_H-M  'R-3m'
_cell_length_a       5.71537
_cell_length_b       5.71536
_cell_length_c       5.71536
_cell_angle_alpha    59.9474
_cell_angle_beta     59.9474
_cell_angle_gamma    59.9474

_symmetry_Int_Tables_number  166
_chemical_formula_structural  AlCr3O8
_chemical_formula_sum  AlCr3O8
_cell_volume  131.85530657410584
_cell_formula_units_Z  1
loop_
  _symmetry_equiv_pos_site_id
 _symmetry_equiv_pos_as_xyz
 1  'x, y, z'
loop_
 _atom_site_type_symbol
 _atom_site_label
 _atom_site_symmetry_multiplicity
 _atom_site_fract_x
 _atom_site_fract_y
 _atom_site_fract_z
 _atom_site_fract_occupancy
 Al  Al1  1  0.50000  0.50000  0.50000  1
 Cr  Cr1  1  0.00000  0.50000  0.50000  1
 Cr  Cr2  1  0.50000  0.50000  -0.00000  1
 Cr  Cr3  1  0.50000  0.00000  0.50000  1
 O  O1  1  0.26323  0.26323  0.26323  1
 O  O2  1  0.70364  0.26435  0.26435  1
 O  O3  1  0.26435  0.26435  0.70364  1
 O  O4  1  0.26435  0.70364  0.26435  1
 O  O5  1  0.73677  0.73677  0.73677  1
 O  O6  1  0.29636  0.73565  0.73565  1
 O  O7  1  0.73565  0.73565  0.29636  1
 O  O8  1  0.73565  0.29636  0.73565  1
