CIF file written using JARVIS-Tools package.
data_BaI2
_symmetry_space_group_name_H-M  'R-3m'
_cell_length_a       5.86743
_cell_length_b       8.28805
_cell_length_c       5.84999
_cell_angle_alpha    89.7804
_cell_angle_beta     120.093
_cell_angle_gamma    135.058

_symmetry_Int_Tables_number  166
_chemical_formula_structural  BaI2
_chemical_formula_sum  BaI2
_cell_volume  142.3230688232169
_cell_formula_units_Z  1
loop_
  _symmetry_equiv_pos_site_id
 _symmetry_equiv_pos_as_xyz
 1  'x, y, z'
loop_
 _atom_site_type_symbol
 _atom_site_label
 _atom_site_symmetry_multiplicity
 _atom_site_fract_x
 _atom_site_fract_y
 _atom_site_fract_z
 _atom_site_fract_occupancy
 Ba  Ba1  1  0.70384  0.05344  0.17872  1
 I  I1  1  0.70401  0.30390  0.67813  1
 I  I2  1  0.70355  0.80291  0.67920  1
