CIF file written using JARVIS-Tools package.
data_LuInNi
_symmetry_space_group_name_H-M  'P-62m'
_cell_length_a       7.34959
_cell_length_b       7.34959
_cell_length_c       3.67851
_cell_angle_alpha    90
_cell_angle_beta     90
_cell_angle_gamma    120

_symmetry_Int_Tables_number  189
_chemical_formula_structural  LuInNi
_chemical_formula_sum  Lu3In3Ni3
_cell_volume  172.0793044436416
_cell_formula_units_Z  3
loop_
  _symmetry_equiv_pos_site_id
 _symmetry_equiv_pos_as_xyz
 1  'x, y, z'
loop_
 _atom_site_type_symbol
 _atom_site_label
 _atom_site_symmetry_multiplicity
 _atom_site_fract_x
 _atom_site_fract_y
 _atom_site_fract_z
 _atom_site_fract_occupancy
 In  In1  1  0.25922  -0.00000  0.50000  1
 In  In2  1  -0.00000  0.25922  0.50000  1
 In  In3  1  0.74078  0.74078  0.50000  1
 Lu  Lu1  1  0.59192  -0.00000  0.00000  1
 Lu  Lu2  1  -0.00000  0.59192  0.00000  1
 Lu  Lu3  1  0.40808  0.40808  0.00000  1
 Ni  Ni1  1  0.33333  0.66667  0.50000  1
 Ni  Ni2  1  0.66667  0.33333  0.50000  1
 Ni  Ni3  1  0.00000  0.00000  0.00000  1
