CIF file written using JARVIS-Tools package.
data_HfCrCuS4
_symmetry_space_group_name_H-M  'P1'
_cell_length_a       6.03129
_cell_length_b       7.18227
_cell_length_c       12.5504
_cell_angle_alpha    106.324
_cell_angle_beta     90.0896
_cell_angle_gamma    90.068

_symmetry_Int_Tables_number  1
_chemical_formula_structural  HfCrCuS4
_chemical_formula_sum  Hf4Cr4Cu4S6
_cell_volume  521.744008355092
_cell_formula_units_Z  4
loop_
  _symmetry_equiv_pos_site_id
 _symmetry_equiv_pos_as_xyz
 1  'x, y, z'
loop_
 _atom_site_type_symbol
 _atom_site_label
 _atom_site_symmetry_multiplicity
 _atom_site_fract_x
 _atom_site_fract_y
 _atom_site_fract_z
 _atom_site_fract_occupancy
 Cr  Cr1  1  0.99745  -0.00102  0.24891  1
 Cr  Cr2  1  -0.00032  -0.00118  0.75217  1
 Cr  Cr3  1  0.00071  0.50138  0.25067  1
 Cr  Cr4  1  0.50226  0.75319  0.74987  1
 Cu  Cu1  1  0.07230  0.98694  0.50103  1
 Cu  Cu2  1  0.40798  0.02005  0.00850  1
 Cu  Cu3  1  0.59385  0.48170  0.49323  1
 Cu  Cu4  1  0.92657  0.50819  0.99267  1
 Hf  Hf1  1  0.00435  0.52005  0.75174  1
 Hf  Hf2  1  0.49718  0.74957  0.24914  1
 Hf  Hf3  1  0.49875  0.25015  0.24940  1
 Hf  Hf4  1  0.50280  0.23336  0.75022  1
 S  S1  1  0.17800  0.82399  0.86915  1
 S  S2  1  0.85050  0.31174  0.36645  1
 S  S3  1  0.67694  0.44170  0.12842  1
 S  S4  1  0.14746  0.69589  0.13391  1
 S  S5  1  0.15721  0.29639  0.86906  1
 S  S6  1  0.14685  0.19054  0.13427  1
 S  S7  1  0.82336  0.69988  0.63157  1
 S  S8  1  0.32225  0.05796  0.37035  1
 S  S9  1  0.67071  0.93821  0.12869  1
 S  S10  1  0.67083  0.04503  0.86844  1
 S  S11  1  0.32800  0.56177  0.37088  1
 S  S12  1  0.34891  0.44855  0.63199  1
 S  S13  1  0.84807  0.80299  0.36367  1
 S  S14  1  0.32222  0.93203  0.63312  1
 S  S15  1  0.84798  0.18761  0.63344  1
 S  S16  1  0.65683  0.56335  0.86903  1
