CIF file written using JARVIS-Tools package.
data_HfCrCuS4
_symmetry_space_group_name_H-M  'Imma'
_cell_length_a       7.16316
_cell_length_b       7.16316
_cell_length_c       7.16316
_cell_angle_alpha    119.554
_cell_angle_beta     119.671
_cell_angle_gamma    90.6727

_symmetry_Int_Tables_number  74
_chemical_formula_structural  HfCrCuS4
_chemical_formula_sum  Hf2Cr2Cu2S8
_cell_volume  261.3985348915939
_cell_formula_units_Z  2
loop_
  _symmetry_equiv_pos_site_id
 _symmetry_equiv_pos_as_xyz
 1  'x, y, z'
loop_
 _atom_site_type_symbol
 _atom_site_label
 _atom_site_symmetry_multiplicity
 _atom_site_fract_x
 _atom_site_fract_y
 _atom_site_fract_z
 _atom_site_fract_occupancy
 Cr  Cr1  1  0.25000  0.75001  0.50001  1
 Cr  Cr2  1  0.75000  0.74999  -0.00001  1
 Cu  Cu1  1  0.88085  0.13085  0.75000  1
 Cu  Cu2  1  0.61915  0.36915  0.25000  1
 Hf  Hf1  1  0.24995  0.75000  -0.00005  1
 Hf  Hf2  1  0.25005  0.25000  0.50005  1
 S  S1  1  0.50131  0.97950  0.97820  1
 S  S2  1  0.01064  0.50790  0.50268  1
 S  S3  1  0.50130  0.52311  0.52180  1
 S  S4  1  0.50522  0.50796  0.99732  1
 S  S5  1  0.99870  0.52050  0.02181  1
 S  S6  1  0.99478  0.99210  0.00274  1
 S  S7  1  0.99869  0.97689  0.47819  1
 S  S8  1  0.48936  -0.00796  0.49726  1
