CIF file written using JARVIS-Tools package.
data_BaSnN2
_symmetry_space_group_name_H-M  'Cmce'
_cell_length_a       7.17745
_cell_length_b       12.9426
_cell_length_c       7.9455
_cell_angle_alpha    90
_cell_angle_beta     90
_cell_angle_gamma    25.6287

_symmetry_Int_Tables_number  64
_chemical_formula_structural  BaSnN2
_chemical_formula_sum  Ba4Sn4N8
_cell_volume  319.25378924572084
_cell_formula_units_Z  4
loop_
  _symmetry_equiv_pos_site_id
 _symmetry_equiv_pos_as_xyz
 1  'x, y, z'
loop_
 _atom_site_type_symbol
 _atom_site_label
 _atom_site_symmetry_multiplicity
 _atom_site_fract_x
 _atom_site_fract_y
 _atom_site_fract_z
 _atom_site_fract_occupancy
 Ba  Ba1  1  0.00000  0.17890  0.58179  1
 Ba  Ba2  1  -0.00000  0.82110  0.41821  1
 Ba  Ba3  1  -0.00000  0.32110  0.08179  1
 Ba  Ba4  1  0.00000  0.67890  0.91821  1
 N  N1  1  0.00000  0.09860  0.89046  1
 N  N2  1  -0.00000  0.90140  0.10954  1
 N  N3  1  -0.00000  0.40140  0.39046  1
 N  N4  1  0.00000  0.59860  0.60954  1
 N  N5  1  0.50000  0.59873  0.75000  1
 N  N6  1  0.50000  0.90127  0.25000  1
 N  N7  1  0.50000  0.40127  0.25000  1
 N  N8  1  0.50000  0.09873  0.75000  1
 Sn  Sn1  1  0.00000  0.43730  0.65322  1
 Sn  Sn2  1  -0.00000  0.56270  0.34678  1
 Sn  Sn3  1  -0.00000  0.06270  0.15322  1
 Sn  Sn4  1  0.00000  0.93730  0.84678  1
