CIF file written using JARVIS-Tools package.
data_SiCl
_symmetry_space_group_name_H-M  'P4/nmm'
_cell_length_a       3.51123
_cell_length_b       3.51123
_cell_length_c       7.4261
_cell_angle_alpha    90
_cell_angle_beta     90
_cell_angle_gamma    90

_symmetry_Int_Tables_number  129
_chemical_formula_structural  SiCl
_chemical_formula_sum  Si2Cl2
_cell_volume  91.55425455244799
_cell_formula_units_Z  2
loop_
  _symmetry_equiv_pos_site_id
 _symmetry_equiv_pos_as_xyz
 1  'x, y, z'
loop_
 _atom_site_type_symbol
 _atom_site_label
 _atom_site_symmetry_multiplicity
 _atom_site_fract_x
 _atom_site_fract_y
 _atom_site_fract_z
 _atom_site_fract_occupancy
 Cl  Cl1  1  0.00000  0.00000  0.82117  1
 Cl  Cl2  1  0.50000  0.50000  0.17883  1
 Si  Si1  1  0.00000  0.00000  0.54095  1
 Si  Si2  1  0.50000  0.50000  0.45905  1
