CIF file written using JARVIS-Tools package.
data_MgInMoS4
_symmetry_space_group_name_H-M  'Imma'
_cell_length_a       7.53449
_cell_length_b       7.56724
_cell_length_c       7.56737
_cell_angle_alpha    59.2939
_cell_angle_beta     60.1386
_cell_angle_gamma    60.1382

_symmetry_Int_Tables_number  74
_chemical_formula_structural  MgInMoS4
_chemical_formula_sum  Mg2In2Mo2S8
_cell_volume  304.05100562011285
_cell_formula_units_Z  2
loop_
  _symmetry_equiv_pos_site_id
 _symmetry_equiv_pos_as_xyz
 1  'x, y, z'
loop_
 _atom_site_type_symbol
 _atom_site_label
 _atom_site_symmetry_multiplicity
 _atom_site_fract_x
 _atom_site_fract_y
 _atom_site_fract_z
 _atom_site_fract_occupancy
 In  In1  1  0.49999  0.50001  0.50000  1
 In  In2  1  0.00000  0.49999  0.50000  1
 Mg  Mg1  1  0.87406  0.87595  0.87595  1
 Mg  Mg2  1  0.12594  0.12406  0.12405  1
 Mo  Mo1  1  0.50000  0.50000  0.00000  1
 Mo  Mo2  1  0.50001  -0.00000  0.50000  1
 S  S1  1  0.72885  0.74688  0.74689  1
 S  S2  1  0.26784  0.23834  0.72590  1
 S  S3  1  0.26789  0.72588  0.23835  1
 S  S4  1  0.72260  0.25315  0.25313  1
 S  S5  1  0.73210  0.27412  0.76165  1
 S  S6  1  0.27740  0.74685  0.74688  1
 S  S7  1  0.27116  0.25311  0.25311  1
 S  S8  1  0.73217  0.76165  0.27410  1
