CIF file written using JARVIS-Tools package.
data_Dy2GaCu3
_symmetry_space_group_name_H-M  'Cm'
_cell_length_a       5.37179
_cell_length_b       5.37179
_cell_length_c       6.86874
_cell_angle_alpha    52.6845
_cell_angle_beta     52.6845
_cell_angle_gamma    47.0091

_symmetry_Int_Tables_number  8
_chemical_formula_structural  Dy2GaCu3
_chemical_formula_sum  Dy2GaCu3
_cell_volume  108.784429609199
_cell_formula_units_Z  1
loop_
  _symmetry_equiv_pos_site_id
 _symmetry_equiv_pos_as_xyz
 1  'x, y, z'
loop_
 _atom_site_type_symbol
 _atom_site_label
 _atom_site_symmetry_multiplicity
 _atom_site_fract_x
 _atom_site_fract_y
 _atom_site_fract_z
 _atom_site_fract_occupancy
 Cu  Cu1  1  0.16454  0.16454  0.38463  1
 Cu  Cu2  1  0.16472  0.16472  0.79000  1
 Cu  Cu3  1  0.83834  0.83834  0.21170  1
 Dy  Dy1  1  0.45748  0.45748  0.79532  1
 Dy  Dy2  1  0.54316  0.54316  0.20599  1
 Ga  Ga1  1  0.83176  0.83176  0.61235  1
