CIF file written using JARVIS-Tools package.
data_La2Fe2Se2O3
_symmetry_space_group_name_H-M  'I4/mmm'
_cell_length_a       4.00323
_cell_length_b       4.0032
_cell_length_c       9.24496
_cell_angle_alpha    77.5011
_cell_angle_beta     77.5011
_cell_angle_gamma    89.9996

_symmetry_Int_Tables_number  139
_chemical_formula_structural  La2Fe2Se2O3
_chemical_formula_sum  La2Fe2Se2O3
_cell_volume  141.04734589614827
_cell_formula_units_Z  1
loop_
  _symmetry_equiv_pos_site_id
 _symmetry_equiv_pos_as_xyz
 1  'x, y, z'
loop_
 _atom_site_type_symbol
 _atom_site_label
 _atom_site_symmetry_multiplicity
 _atom_site_fract_x
 _atom_site_fract_y
 _atom_site_fract_z
 _atom_site_fract_occupancy
 Fe  Fe1  1  0.50000  -0.00001  -0.00000  1
 Fe  Fe2  1  -0.00001  0.50000  -0.00000  1
 La  La1  1  0.67794  0.67794  0.64434  1
 La  La2  1  0.32206  0.32206  0.35567  1
 O  O1  1  0.50000  0.50000  -0.00002  1
 O  O2  1  0.25002  0.74999  0.50001  1
 O  O3  1  0.74999  0.25002  0.50000  1
 Se  Se1  1  0.08831  0.08830  0.82345  1
 Se  Se2  1  0.91169  0.91170  0.17655  1
