CIF file written using JARVIS-Tools package.
data_Mo2HO6
_symmetry_space_group_name_H-M  'Cm'
_cell_length_a       7.8862
_cell_length_b       7.8862
_cell_length_c       3.80739
_cell_angle_alpha    90.2329
_cell_angle_beta     90.2329
_cell_angle_gamma    27.5585

_symmetry_Int_Tables_number  8
_chemical_formula_structural  Mo2HO6
_chemical_formula_sum  Mo2HO6
_cell_volume  109.55077136049366
_cell_formula_units_Z  1
loop_
  _symmetry_equiv_pos_site_id
 _symmetry_equiv_pos_as_xyz
 1  'x, y, z'
loop_
 _atom_site_type_symbol
 _atom_site_label
 _atom_site_symmetry_multiplicity
 _atom_site_fract_x
 _atom_site_fract_y
 _atom_site_fract_z
 _atom_site_fract_occupancy
 H  H1  1  0.24167  0.24167  0.98053  1
 Mo  Mo1  1  0.90742  0.90742  0.24011  1
 Mo  Mo2  1  0.09098  0.09098  0.74373  1
 O  O1  1  0.08585  0.08585  0.24426  1
 O  O2  1  0.94518  0.94518  0.74119  1
 O  O3  1  0.42729  0.42729  0.24129  1
 O  O4  1  0.57581  0.57581  0.74438  1
 O  O5  1  0.79799  0.79799  0.23138  1
 O  O6  1  0.21381  0.21381  0.74782  1
