CIF file written using JARVIS-Tools package.
data_ZrCo4N4
_symmetry_space_group_name_H-M  'P-1'
_cell_length_a       5.15501
_cell_length_b       4.82733
_cell_length_c       8.11674
_cell_angle_alpha    72.9675
_cell_angle_beta     74.6531
_cell_angle_gamma    71.1834

_symmetry_Int_Tables_number  2
_chemical_formula_structural  ZrCo4N4
_chemical_formula_sum  Zr2Co8N8
_cell_volume  179.54290288350202
_cell_formula_units_Z  2
loop_
  _symmetry_equiv_pos_site_id
 _symmetry_equiv_pos_as_xyz
 1  'x, y, z'
loop_
 _atom_site_type_symbol
 _atom_site_label
 _atom_site_symmetry_multiplicity
 _atom_site_fract_x
 _atom_site_fract_y
 _atom_site_fract_z
 _atom_site_fract_occupancy
 Co  Co1  1  0.82540  0.60370  0.23774  1
 Co  Co2  1  0.76675  0.03721  0.40125  1
 Co  Co3  1  0.26470  0.53797  0.40852  1
 Co  Co4  1  0.73530  0.46203  0.59148  1
 Co  Co5  1  0.23325  0.96279  0.59875  1
 Co  Co6  1  0.86971  0.21840  0.06075  1
 Co  Co7  1  0.17460  0.39630  0.76226  1
 Co  Co8  1  0.13029  0.78160  0.93925  1
 N  N1  1  0.40524  0.62654  0.77001  1
 N  N2  1  0.24033  0.10001  0.96205  1
 N  N3  1  0.75967  0.89999  0.03795  1
 N  N4  1  0.02554  0.28528  0.41826  1
 N  N5  1  0.46440  0.21959  0.58499  1
 N  N6  1  0.53560  0.78041  0.41501  1
 N  N7  1  0.59476  0.37346  0.22999  1
 N  N8  1  0.97446  0.71472  0.58174  1
 Zr  Zr1  1  0.34383  0.11735  0.20119  1
 Zr  Zr2  1  0.65617  0.88265  0.79881  1
