CIF file written using JARVIS-Tools package.
data_W2C3N6
_symmetry_space_group_name_H-M  'R-3c'
_cell_length_a       10.7307
_cell_length_b       5.04688
_cell_length_c       30.9821
_cell_angle_alpha    90
_cell_angle_beta     164.244
_cell_angle_gamma    76.3989

_symmetry_Int_Tables_number  167
_chemical_formula_structural  W2C3N6
_chemical_formula_sum  W4C6N2
_cell_volume  227.788138015557
_cell_formula_units_Z  2
loop_
  _symmetry_equiv_pos_site_id
 _symmetry_equiv_pos_as_xyz
 1  'x, y, z'
loop_
 _atom_site_type_symbol
 _atom_site_label
 _atom_site_symmetry_multiplicity
 _atom_site_fract_x
 _atom_site_fract_y
 _atom_site_fract_z
 _atom_site_fract_occupancy
 C  C1  1  0.00704  0.66426  0.08570  1
 C  C2  1  -0.00000  0.66435  0.75001  1
 C  C3  1  0.99296  0.67130  0.41432  1
 C  C4  1  0.00704  0.32870  0.58570  1
 C  C5  1  0.99296  0.33574  0.91432  1
 C  C6  1  -0.00000  0.33565  0.25001  1
 N  N1  1  0.02818  0.66290  0.38632  1
 N  N2  1  0.01709  0.64584  0.04931  1
 N  N3  1  0.04508  0.64599  0.80477  1
 N  N4  1  0.98291  0.66295  0.45071  1
 N  N5  1  0.97182  0.33709  0.61370  1
 N  N6  1  0.97182  0.69110  0.11370  1
 N  N7  1  0.04508  0.30893  0.30477  1
 N  N8  1  0.95492  0.69106  0.69525  1
 N  N9  1  0.95492  0.35402  0.19525  1
 N  N10  1  0.01709  0.33706  0.54931  1
 N  N11  1  0.98291  0.35414  0.95071  1
 N  N12  1  0.02818  0.30892  0.88632  1
 W  W1  1  0.99988  0.00007  0.33329  1
 W  W2  1  0.99988  0.00005  0.83329  1
 W  W3  1  0.00012  0.99992  0.66672  1
 W  W4  1  0.00012  0.99996  0.16672  1
