CIF file written using JARVIS-Tools package.
data_Ba3Te
_symmetry_space_group_name_H-M  'Cm'
_cell_length_a       8.2748
_cell_length_b       8.29481
_cell_length_c       4.64062
_cell_angle_alpha    106.237
_cell_angle_beta     55.885
_cell_angle_gamma    119.889

_symmetry_Int_Tables_number  8
_chemical_formula_structural  Ba3Te
_chemical_formula_sum  Ba3Te
_cell_volume  228.63295220023784
_cell_formula_units_Z  1
loop_
  _symmetry_equiv_pos_site_id
 _symmetry_equiv_pos_as_xyz
 1  'x, y, z'
loop_
 _atom_site_type_symbol
 _atom_site_label
 _atom_site_symmetry_multiplicity
 _atom_site_fract_x
 _atom_site_fract_y
 _atom_site_fract_z
 _atom_site_fract_occupancy
 Ba  Ba1  1  0.02234  0.00168  0.88259  1
 Ba  Ba2  1  0.70232  0.35935  0.88011  1
 Ba  Ba3  1  0.34462  0.64412  0.88036  1
 Te  Te1  1  0.52231  0.00174  0.38139  1
