CIF file written using JARVIS-Tools package.
data_Mg2ScMo3S8
_symmetry_space_group_name_H-M  'R-3m'
_cell_length_a       7.35243
_cell_length_b       7.35236
_cell_length_c       7.3524
_cell_angle_alpha    61.0881
_cell_angle_beta     61.0878
_cell_angle_gamma    61.0881

_symmetry_Int_Tables_number  166
_chemical_formula_structural  Mg2ScMo3S8
_chemical_formula_sum  Mg2ScMo3S8
_cell_volume  287.92549127983796
_cell_formula_units_Z  1
loop_
  _symmetry_equiv_pos_site_id
 _symmetry_equiv_pos_as_xyz
 1  'x, y, z'
loop_
 _atom_site_type_symbol
 _atom_site_label
 _atom_site_symmetry_multiplicity
 _atom_site_fract_x
 _atom_site_fract_y
 _atom_site_fract_z
 _atom_site_fract_occupancy
 Mg  Mg1  1  0.87709  0.87709  0.87709  1
 Mg  Mg2  1  0.12291  0.12292  0.12292  1
 Mo  Mo1  1  0.50001  0.50001  -0.00001  1
 Mo  Mo2  1  0.00000  0.50000  0.50000  1
 Mo  Mo3  1  0.50000  -0.00000  0.50000  1
 S  S1  1  0.73998  0.73998  0.73996  1
 S  S2  1  0.25449  0.25450  0.72338  1
 S  S3  1  0.25450  0.72338  0.25451  1
 S  S4  1  0.72337  0.25450  0.25450  1
 S  S5  1  0.74549  0.27663  0.74549  1
 S  S6  1  0.27663  0.74550  0.74550  1
 S  S7  1  0.26004  0.26003  0.26002  1
 S  S8  1  0.74550  0.74549  0.27663  1
 Sc  Sc1  1  0.49999  0.49999  0.50001  1
