CIF file written using JARVIS-Tools package.
data_NaV2Se4
_symmetry_space_group_name_H-M  'R3m'
_cell_length_a       13.7096
_cell_length_b       13.7096
_cell_length_c       13.7096
_cell_angle_alpha    15.136
_cell_angle_beta     15.136
_cell_angle_gamma    15.136

_symmetry_Int_Tables_number  160
_chemical_formula_structural  NaV2Se4
_chemical_formula_sum  NaV2Se4
_cell_volume  153.03061036927932
_cell_formula_units_Z  1
loop_
  _symmetry_equiv_pos_site_id
 _symmetry_equiv_pos_as_xyz
 1  'x, y, z'
loop_
 _atom_site_type_symbol
 _atom_site_label
 _atom_site_symmetry_multiplicity
 _atom_site_fract_x
 _atom_site_fract_y
 _atom_site_fract_z
 _atom_site_fract_occupancy
 Na  Na1  1  0.91660  0.91660  0.91660  1
 Se  Se1  1  0.19840  0.19840  0.19840  1
 Se  Se2  1  0.70751  0.70751  0.70751  1
 Se  Se3  1  0.30184  0.30184  0.30184  1
 Se  Se4  1  0.79277  0.79277  0.79277  1
 V  V1  1  0.00625  0.00625  0.00625  1
 V  V2  1  0.49408  0.49408  0.49408  1
