CIF file written using JARVIS-Tools package.
data_BaTe3
_symmetry_space_group_name_H-M  'P1'
_cell_length_a       6.5948
_cell_length_b       6.59545
_cell_length_c       5.94697
_cell_angle_alpha    112.129
_cell_angle_beta     85.7144
_cell_angle_gamma    132.619

_symmetry_Int_Tables_number  1
_chemical_formula_structural  BaTe3
_chemical_formula_sum  BaTe3
_cell_volume  170.04481065326718
_cell_formula_units_Z  1
loop_
  _symmetry_equiv_pos_site_id
 _symmetry_equiv_pos_as_xyz
 1  'x, y, z'
loop_
 _atom_site_type_symbol
 _atom_site_label
 _atom_site_symmetry_multiplicity
 _atom_site_fract_x
 _atom_site_fract_y
 _atom_site_fract_z
 _atom_site_fract_occupancy
 Ba  Ba1  1  0.61334  0.27448  0.65382  1
 Te  Te1  1  0.08731  0.09032  0.01352  1
 Te  Te2  1  -0.09838  -0.06751  0.49770  1
 Te  Te3  1  0.00563  0.50533  0.22831  1
