CIF file written using JARVIS-Tools package.
data_YbTmS2
_symmetry_space_group_name_H-M  'R-3m'
_cell_length_a       6.78934
_cell_length_b       6.78934
_cell_length_c       6.78934
_cell_angle_alpha    33.1143
_cell_angle_beta     33.1143
_cell_angle_gamma    33.1143

_symmetry_Int_Tables_number  166
_chemical_formula_structural  YbTmS2
_chemical_formula_sum  YbTmS2
_cell_volume  83.13653099031534
_cell_formula_units_Z  1
loop_
  _symmetry_equiv_pos_site_id
 _symmetry_equiv_pos_as_xyz
 1  'x, y, z'
loop_
 _atom_site_type_symbol
 _atom_site_label
 _atom_site_symmetry_multiplicity
 _atom_site_fract_x
 _atom_site_fract_y
 _atom_site_fract_z
 _atom_site_fract_occupancy
 S  S1  1  0.24806  0.24806  0.24806  1
 S  S2  1  0.75194  0.75194  0.75194  1
 Tm  Tm1  1  0.50000  0.50000  0.50000  1
 Yb  Yb1  1  0.00000  0.00000  0.00000  1
