CIF file written using JARVIS-Tools package.
data_CeZnNi4
_symmetry_space_group_name_H-M  'P-6m2'
_cell_length_a       5.02018
_cell_length_b       5.02018
_cell_length_c       3.92591
_cell_angle_alpha    90
_cell_angle_beta     90
_cell_angle_gamma    120

_symmetry_Int_Tables_number  187
_chemical_formula_structural  CeZnNi4
_chemical_formula_sum  CeZnNi4
_cell_volume  85.68595444134472
_cell_formula_units_Z  1
loop_
  _symmetry_equiv_pos_site_id
 _symmetry_equiv_pos_as_xyz
 1  'x, y, z'
loop_
 _atom_site_type_symbol
 _atom_site_label
 _atom_site_symmetry_multiplicity
 _atom_site_fract_x
 _atom_site_fract_y
 _atom_site_fract_z
 _atom_site_fract_occupancy
 Ce  Ce1  1  0.00000  0.00000  0.00000  1
 Ni  Ni1  1  0.66667  0.33333  0.00000  1
 Ni  Ni2  1  0.99514  0.49757  0.50000  1
 Ni  Ni3  1  0.50243  0.49757  0.50000  1
 Ni  Ni4  1  0.50243  0.00486  0.50000  1
 Zn  Zn1  1  0.33333  0.66667  0.00000  1
