CIF file written using JARVIS-Tools package.
data_TbUTe6
_symmetry_space_group_name_H-M  'Amm2'
_cell_length_a       12.8105
_cell_length_b       12.8105
_cell_length_c       4.4013
_cell_angle_alpha    90
_cell_angle_beta     90
_cell_angle_gamma    160.247

_symmetry_Int_Tables_number  38
_chemical_formula_structural  TbUTe6
_chemical_formula_sum  TbUTe6
_cell_volume  244.10770763434977
_cell_formula_units_Z  1
loop_
  _symmetry_equiv_pos_site_id
 _symmetry_equiv_pos_as_xyz
 1  'x, y, z'
loop_
 _atom_site_type_symbol
 _atom_site_label
 _atom_site_symmetry_multiplicity
 _atom_site_fract_x
 _atom_site_fract_y
 _atom_site_fract_z
 _atom_site_fract_occupancy
 Tb  Tb1  1  0.16814  0.83186  0.50000  1
 Te  Te1  1  0.42508  0.57492  0.00000  1
 Te  Te2  1  0.57255  0.42745  0.50000  1
 Te  Te3  1  0.70699  0.29301  0.00000  1
 Te  Te4  1  0.29635  0.70365  0.50000  1
 Te  Te5  1  0.07220  0.92780  0.00000  1
 Te  Te6  1  0.92509  0.07491  0.50000  1
 U  U1  1  0.83360  0.16640  0.00000  1
