CIF file written using JARVIS-Tools package.
data_Sr10MnN8
_symmetry_space_group_name_H-M  'C2/m'
_cell_length_a       11.499
_cell_length_b       4.88365
_cell_length_c       8.44742
_cell_angle_alpha    90
_cell_angle_beta     66.4739
_cell_angle_gamma    77.7398

_symmetry_Int_Tables_number  12
_chemical_formula_structural  Sr10MnN8
_chemical_formula_sum  Sr0MnN8
_cell_volume  423.12589016813575
_cell_formula_units_Z  1
loop_
  _symmetry_equiv_pos_site_id
 _symmetry_equiv_pos_as_xyz
 1  'x, y, z'
loop_
 _atom_site_type_symbol
 _atom_site_label
 _atom_site_symmetry_multiplicity
 _atom_site_fract_x
 _atom_site_fract_y
 _atom_site_fract_z
 _atom_site_fract_occupancy
 Mn  Mn1  1  -0.00000  0.50000  0.50000  1
 N  N1  1  0.03950  0.48025  0.67607  1
 N  N2  1  0.61138  0.69431  0.85952  1
 N  N3  1  0.60947  0.19527  0.55985  1
 N  N4  1  0.39053  0.80473  0.44015  1
 N  N5  1  0.81495  0.09252  0.03829  1
 N  N6  1  0.18505  0.90748  0.96171  1
 N  N7  1  0.96050  0.51975  0.32393  1
 N  N8  1  0.38862  0.30569  0.14048  1
 Sr  Sr1  1  0.41411  0.79294  0.71466  1
 Sr  Sr2  1  0.05697  0.97151  0.77404  1
 Sr  Sr3  1  0.94303  0.02849  0.22596  1
 Sr  Sr4  1  0.61172  0.19414  0.85987  1
 Sr  Sr5  1  0.28715  0.35643  0.47081  1
 Sr  Sr6  1  0.80938  0.59531  0.94011  1
 Sr  Sr7  1  0.19062  0.40469  0.05989  1
 Sr  Sr8  1  0.38828  0.80586  0.14013  1
 Sr  Sr9  1  0.58589  0.20706  0.28534  1
 Sr  Sr10  1  0.71285  0.64357  0.52919  1
