CIF file written using JARVIS-Tools package.
data_Lu3Mg2CrS8
_symmetry_space_group_name_H-M  'R-3m'
_cell_length_a       7.64535
_cell_length_b       7.57016
_cell_length_c       7.64548
_cell_angle_alpha    59.6757
_cell_angle_beta     59.9936
_cell_angle_gamma    59.6763

_symmetry_Int_Tables_number  166
_chemical_formula_structural  Lu3Mg2CrS8
_chemical_formula_sum  Lu3Mg2CrS8
_cell_volume  311.33429699662014
_cell_formula_units_Z  1
loop_
  _symmetry_equiv_pos_site_id
 _symmetry_equiv_pos_as_xyz
 1  'x, y, z'
loop_
 _atom_site_type_symbol
 _atom_site_label
 _atom_site_symmetry_multiplicity
 _atom_site_fract_x
 _atom_site_fract_y
 _atom_site_fract_z
 _atom_site_fract_occupancy
 Cr  Cr1  1  0.49998  0.00000  0.50000  1
 Lu  Lu1  1  0.50001  0.49999  0.49999  1
 Lu  Lu2  1  0.50001  0.50000  -0.00000  1
 Lu  Lu3  1  -0.00000  0.50001  0.50001  1
 Mg  Mg1  1  0.87472  0.87586  0.87471  1
 Mg  Mg2  1  0.12528  0.12414  0.12529  1
 S  S1  1  0.73190  0.76382  0.73190  1
 S  S2  1  0.26801  0.23626  0.72763  1
 S  S3  1  0.25566  0.73316  0.25564  1
 S  S4  1  0.72762  0.23624  0.26802  1
 S  S5  1  0.74435  0.26684  0.74436  1
 S  S6  1  0.27238  0.76373  0.73198  1
 S  S7  1  0.26807  0.23621  0.26809  1
 S  S8  1  0.73199  0.76374  0.27238  1
