CIF file written using JARVIS-Tools package.
data_BaAlCuAgO5
_symmetry_space_group_name_H-M  'P1'
_cell_length_a       3.89593
_cell_length_b       4.49152
_cell_length_c       7.28165
_cell_angle_alpha    87.3125
_cell_angle_beta     72.5939
_cell_angle_gamma    88.5834

_symmetry_Int_Tables_number  1
_chemical_formula_structural  BaAlCuAgO5
_chemical_formula_sum  BaAlCuAgO5
_cell_volume  121.44330645182366
_cell_formula_units_Z  1
loop_
  _symmetry_equiv_pos_site_id
 _symmetry_equiv_pos_as_xyz
 1  'x, y, z'
loop_
 _atom_site_type_symbol
 _atom_site_label
 _atom_site_symmetry_multiplicity
 _atom_site_fract_x
 _atom_site_fract_y
 _atom_site_fract_z
 _atom_site_fract_occupancy
 Ag  Ag1  1  0.54624  0.52705  0.70328  1
 Al  Al1  1  0.97128  0.12914  0.46118  1
 Ba  Ba1  1  0.98663  0.00842  0.99049  1
 Cu  Cu1  1  0.39477  0.51213  0.26212  1
 O  O1  1  0.18699  0.44096  0.53569  1
 O  O2  1  0.64294  0.01282  0.67760  1
 O  O3  1  0.86888  0.39487  0.28199  1
 O  O4  1  0.31953  0.95084  0.28450  1
 O  O5  1  0.58274  0.52377  0.99106  1
