CIF file written using JARVIS-Tools package.
data_MnCd4S5
_symmetry_space_group_name_H-M  'R3m'
_cell_length_a       17.0253
_cell_length_b       17.0253
_cell_length_c       17.0253
_cell_angle_alpha    13.9654
_cell_angle_beta     13.9654
_cell_angle_gamma    13.9655

_symmetry_Int_Tables_number  160
_chemical_formula_structural  MnCd4S5
_chemical_formula_sum  MnCd4S5
_cell_volume  250.15209923988536
_cell_formula_units_Z  1
loop_
  _symmetry_equiv_pos_site_id
 _symmetry_equiv_pos_as_xyz
 1  'x, y, z'
loop_
 _atom_site_type_symbol
 _atom_site_label
 _atom_site_symmetry_multiplicity
 _atom_site_fract_x
 _atom_site_fract_y
 _atom_site_fract_z
 _atom_site_fract_occupancy
 Cd  Cd1  1  0.00210  0.00210  0.00210  1
 Cd  Cd2  1  0.60057  0.60057  0.60057  1
 Cd  Cd3  1  0.19904  0.19904  0.19904  1
 Cd  Cd4  1  0.79738  0.79738  0.79738  1
 Mn  Mn1  1  0.40071  0.40071  0.40071  1
 S  S1  1  0.95161  0.95161  0.95161  1
 S  S2  1  0.55006  0.55006  0.55006  1
 S  S3  1  0.14850  0.14850  0.14850  1
 S  S4  1  0.74663  0.74663  0.74663  1
 S  S5  1  0.35339  0.35339  0.35339  1
