CIF file written using JARVIS-Tools package.
data_BaYMnCuO5
_symmetry_space_group_name_H-M  'P4mm'
_cell_length_a       5.50894
_cell_length_b       5.50893
_cell_length_c       8.52924
_cell_angle_alpha    71.1576
_cell_angle_beta     71.1576
_cell_angle_gamma    90.0005

_symmetry_Int_Tables_number  99
_chemical_formula_structural  BaYMnCuO5
_chemical_formula_sum  Ba2Y2Mn2Cu2O0
_cell_volume  230.27108723964034
_cell_formula_units_Z  2
loop_
  _symmetry_equiv_pos_site_id
 _symmetry_equiv_pos_as_xyz
 1  'x, y, z'
loop_
 _atom_site_type_symbol
 _atom_site_label
 _atom_site_symmetry_multiplicity
 _atom_site_fract_x
 _atom_site_fract_y
 _atom_site_fract_z
 _atom_site_fract_occupancy
 Ba  Ba1  1  0.00839  0.00839  0.98324  1
 Ba  Ba2  1  0.50839  0.50839  0.98324  1
 Cu  Cu1  1  0.37234  0.87235  0.25529  1
 Cu  Cu2  1  0.87237  0.37237  0.25524  1
 Mn  Mn1  1  0.15139  0.65139  0.69721  1
 Mn  Mn2  1  0.65140  0.15140  0.69720  1
 O  O1  1  0.11138  0.11137  0.27726  1
 O  O2  1  0.52984  0.02984  0.94033  1
 O  O3  1  0.42474  0.92474  0.65053  1
 O  O4  1  0.02983  0.52983  0.94036  1
 O  O5  1  0.92473  0.92473  0.65053  1
 O  O6  1  0.61136  0.11136  0.27727  1
 O  O7  1  0.11136  0.61136  0.27727  1
 O  O8  1  0.92473  0.42473  0.65053  1
 O  O9  1  0.42473  0.42473  0.65053  1
 O  O10  1  0.61137  0.61138  0.27726  1
 Y  Y1  1  0.77187  0.77187  0.45627  1
 Y  Y2  1  0.27187  0.27187  0.45627  1
