CIF file written using JARVIS-Tools package.
data_BeInSe
_symmetry_space_group_name_H-M  'Pm'
_cell_length_a       3.47829
_cell_length_b       6.98578
_cell_length_c       3.75791
_cell_angle_alpha    90
_cell_angle_beta     90
_cell_angle_gamma    119.593

_symmetry_Int_Tables_number  6
_chemical_formula_structural  BeInSe
_chemical_formula_sum  BeInSe
_cell_volume  79.40065710217618
_cell_formula_units_Z  1
loop_
  _symmetry_equiv_pos_site_id
 _symmetry_equiv_pos_as_xyz
 1  'x, y, z'
loop_
 _atom_site_type_symbol
 _atom_site_label
 _atom_site_symmetry_multiplicity
 _atom_site_fract_x
 _atom_site_fract_y
 _atom_site_fract_z
 _atom_site_fract_occupancy
 Be  Be1  1  0.27922  -0.05439  0.00000  1
 In  In1  1  0.12674  0.29558  0.00000  1
 Se  Se1  1  0.59404  0.75881  0.00000  1
