CIF file written using JARVIS-Tools package.
data_LiV3O4
_symmetry_space_group_name_H-M  'Cmmm'
_cell_length_a       5.11938
_cell_length_b       5.8233
_cell_length_c       5.8873
_cell_angle_alpha    119.641
_cell_angle_beta     74.2255
_cell_angle_gamma    89.9974

_symmetry_Int_Tables_number  65
_chemical_formula_structural  LiV3O4
_chemical_formula_sum  Li2V6O8
_cell_volume  144.88887147835436
_cell_formula_units_Z  2
loop_
  _symmetry_equiv_pos_site_id
 _symmetry_equiv_pos_as_xyz
 1  'x, y, z'
loop_
 _atom_site_type_symbol
 _atom_site_label
 _atom_site_symmetry_multiplicity
 _atom_site_fract_x
 _atom_site_fract_y
 _atom_site_fract_z
 _atom_site_fract_occupancy
 Li  Li1  1  0.00001  0.00004  0.50003  1
 Li  Li2  1  0.00002  0.49991  0.50002  1
 O  O1  1  0.74743  0.37627  0.75263  1
 O  O2  1  0.74742  0.87626  0.75261  1
 O  O3  1  0.25261  0.62369  0.24743  1
 O  O4  1  0.25260  0.12368  0.24742  1
 O  O5  1  0.24411  0.12204  0.74414  1
 O  O6  1  0.24411  0.62203  0.74414  1
 O  O7  1  0.75592  0.87792  0.25591  1
 O  O8  1  0.75592  0.37791  0.25590  1
 V  V1  1  0.50001  0.74998  0.00002  1
 V  V2  1  0.50001  0.24998  0.00002  1
 V  V3  1  0.50001  0.74998  0.50002  1
 V  V4  1  0.00003  0.49999  0.00004  1
 V  V5  1  0.00000  0.99996  1.00000  1
 V  V6  1  0.50001  0.24997  0.50002  1
