CIF file written using JARVIS-Tools package.
data_TiBeP
_symmetry_space_group_name_H-M  'Amm2'
_cell_length_a       3.54502
_cell_length_b       4.78991
_cell_length_c       2.8166
_cell_angle_alpha    90
_cell_angle_beta     90
_cell_angle_gamma    111.719

_symmetry_Int_Tables_number  38
_chemical_formula_structural  TiBeP
_chemical_formula_sum  TiBeP
_cell_volume  44.43178689115603
_cell_formula_units_Z  1
loop_
  _symmetry_equiv_pos_site_id
 _symmetry_equiv_pos_as_xyz
 1  'x, y, z'
loop_
 _atom_site_type_symbol
 _atom_site_label
 _atom_site_symmetry_multiplicity
 _atom_site_fract_x
 _atom_site_fract_y
 _atom_site_fract_z
 _atom_site_fract_occupancy
 Be  Be1  1  -0.22731  -0.19214  0.00000  1
 P  P1  1  0.38550  0.03348  0.00000  1
 Ti  Ti1  1  0.08410  0.43068  0.00000  1
