CIF file written using JARVIS-Tools package.
data_MgHg2
_symmetry_space_group_name_H-M  'C2/c'
_cell_length_a       5.2792
_cell_length_b       5.2792
_cell_length_c       7.86104
_cell_angle_alpha    53.4933
_cell_angle_beta     53.4933
_cell_angle_gamma    58.9902

_symmetry_Int_Tables_number  15
_chemical_formula_structural  MgHg2
_chemical_formula_sum  Mg2Hg4
_cell_volume  137.06691176189378
_cell_formula_units_Z  2
loop_
  _symmetry_equiv_pos_site_id
 _symmetry_equiv_pos_as_xyz
 1  'x, y, z'
loop_
 _atom_site_type_symbol
 _atom_site_label
 _atom_site_symmetry_multiplicity
 _atom_site_fract_x
 _atom_site_fract_y
 _atom_site_fract_z
 _atom_site_fract_occupancy
 Hg  Hg1  1  0.21804  0.42406  0.76976  1
 Hg  Hg2  1  0.78196  0.57594  0.23024  1
 Hg  Hg3  1  0.42406  0.21804  0.26976  1
 Hg  Hg4  1  0.57594  0.78196  0.73024  1
 Mg  Mg1  1  0.88576  0.11424  0.75000  1
 Mg  Mg2  1  0.11424  0.88576  0.25000  1
