CIF file written using JARVIS-Tools package.
data_MnIn2Se2S2
_symmetry_space_group_name_H-M  'R3m'
_cell_length_a       12.6195
_cell_length_b       12.6195
_cell_length_c       12.6195
_cell_angle_alpha    18.543
_cell_angle_beta     18.543
_cell_angle_gamma    18.543

_symmetry_Int_Tables_number  160
_chemical_formula_structural  MnIn2Se2S2
_chemical_formula_sum  MnIn2Se2S2
_cell_volume  177.55239176594972
_cell_formula_units_Z  1
loop_
  _symmetry_equiv_pos_site_id
 _symmetry_equiv_pos_as_xyz
 1  'x, y, z'
loop_
 _atom_site_type_symbol
 _atom_site_label
 _atom_site_symmetry_multiplicity
 _atom_site_fract_x
 _atom_site_fract_y
 _atom_site_fract_z
 _atom_site_fract_occupancy
 In  In1  1  0.00383  0.00383  0.00383  1
 In  In2  1  0.22349  0.22349  0.22349  1
 Mn  Mn1  1  0.77955  0.77955  0.77955  1
 S  S1  1  0.86356  0.86356  0.86356  1
 S  S2  1  0.12312  0.12312  0.12312  1
 Se  Se1  1  0.29380  0.29380  0.29380  1
 Se  Se2  1  0.70865  0.70865  0.70865  1
