CIF file written using JARVIS-Tools package.
data_Ba2FeMoO6
_symmetry_space_group_name_H-M  'Fm-3m'
_cell_length_a       5.63428
_cell_length_b       7.96924
_cell_length_c       5.63429
_cell_angle_alpha    90
_cell_angle_beta     90.0001
_cell_angle_gamma    90

_symmetry_Int_Tables_number  225
_chemical_formula_structural  Ba2FeMoO6
_chemical_formula_sum  Ba4Fe2Mo2O2
_cell_volume  252.98450188259542
_cell_formula_units_Z  2
loop_
  _symmetry_equiv_pos_site_id
 _symmetry_equiv_pos_as_xyz
 1  'x, y, z'
loop_
 _atom_site_type_symbol
 _atom_site_label
 _atom_site_symmetry_multiplicity
 _atom_site_fract_x
 _atom_site_fract_y
 _atom_site_fract_z
 _atom_site_fract_occupancy
 Ba  Ba1  1  -0.00001  0.25000  0.50001  1
 Ba  Ba2  1  0.50001  0.75000  -0.00001  1
 Ba  Ba3  1  0.50000  0.25000  0.00001  1
 Ba  Ba4  1  0.00000  0.75000  0.49999  1
 Fe  Fe1  1  0.50000  0.50000  0.50000  1
 Fe  Fe2  1  -0.00000  -0.00000  -0.00000  1
 Mo  Mo1  1  -0.00000  0.50000  0.00000  1
 Mo  Mo2  1  0.50001  -0.00000  0.50000  1
 O  O1  1  0.50000  0.24732  0.49998  1
 O  O2  1  0.25265  0.00002  0.74734  1
 O  O3  1  -0.00001  0.25268  0.00004  1
 O  O4  1  0.49999  0.75268  0.50002  1
 O  O5  1  0.00001  0.74732  -0.00004  1
 O  O6  1  0.25266  0.99999  0.25265  1
 O  O7  1  0.74735  -0.00002  0.25266  1
 O  O8  1  0.24736  0.49998  0.75267  1
 O  O9  1  0.74734  0.00001  0.74735  1
 O  O10  1  0.75267  0.49999  0.75264  1
 O  O11  1  0.24733  0.50001  0.24736  1
 O  O12  1  0.75264  0.50002  0.24733  1
