CIF file written using JARVIS-Tools package.
data_UCu3Pd2
_symmetry_space_group_name_H-M  'Imm2'
_cell_length_a       5.09888
_cell_length_b       5.09888
_cell_length_c       5.09888
_cell_angle_alpha    122.425
_cell_angle_beta     116.596
_cell_angle_gamma    90.9231

_symmetry_Int_Tables_number  44
_chemical_formula_structural  UCu3Pd2
_chemical_formula_sum  UCu3Pd2
_cell_volume  94.11724116717349
_cell_formula_units_Z  1
loop_
  _symmetry_equiv_pos_site_id
 _symmetry_equiv_pos_as_xyz
 1  'x, y, z'
loop_
 _atom_site_type_symbol
 _atom_site_label
 _atom_site_symmetry_multiplicity
 _atom_site_fract_x
 _atom_site_fract_y
 _atom_site_fract_z
 _atom_site_fract_occupancy
 Cu  Cu1  1  0.61879  0.36840  0.74961  1
 Cu  Cu2  1  0.61879  0.86917  0.25039  1
 Cu  Cu3  1  0.26640  0.76640  0.50000  1
 Pd  Pd1  1  0.62039  0.37167  0.24873  1
 Pd  Pd2  1  0.12294  0.37167  0.75127  1
 U  U1  1  0.00270  0.00270  -0.00000  1
