CIF file written using JARVIS-Tools package.
data_BeZn2
_symmetry_space_group_name_H-M  'P6/mmm'
_cell_length_a       4.19886
_cell_length_b       2.98284
_cell_length_c       4.19897
_cell_angle_alpha    90
_cell_angle_beta     59.9999
_cell_angle_gamma    90

_symmetry_Int_Tables_number  191
_chemical_formula_structural  BeZn2
_chemical_formula_sum  BeZn2
_cell_volume  45.54427011268646
_cell_formula_units_Z  1
loop_
  _symmetry_equiv_pos_site_id
 _symmetry_equiv_pos_as_xyz
 1  'x, y, z'
loop_
 _atom_site_type_symbol
 _atom_site_label
 _atom_site_symmetry_multiplicity
 _atom_site_fract_x
 _atom_site_fract_y
 _atom_site_fract_z
 _atom_site_fract_occupancy
 Be  Be1  1  0.46667  0.00000  -0.20001  1
 Zn  Zn1  1  -0.19999  0.00000  0.13332  1
 Zn  Zn2  1  0.13331  0.00000  0.46669  1
