CIF file written using JARVIS-Tools package.
data_BeTlP
_symmetry_space_group_name_H-M  'Amm2'
_cell_length_a       6.24973
_cell_length_b       3.67248
_cell_length_c       2.99186
_cell_angle_alpha    90
_cell_angle_beta     90
_cell_angle_gamma    106.964

_symmetry_Int_Tables_number  38
_chemical_formula_structural  BeTlP
_chemical_formula_sum  BeTlP
_cell_volume  65.6810581653866
_cell_formula_units_Z  1
loop_
  _symmetry_equiv_pos_site_id
 _symmetry_equiv_pos_as_xyz
 1  'x, y, z'
loop_
 _atom_site_type_symbol
 _atom_site_label
 _atom_site_symmetry_multiplicity
 _atom_site_fract_x
 _atom_site_fract_y
 _atom_site_fract_z
 _atom_site_fract_occupancy
 Be  Be1  1  0.24473  -0.04473  0.00000  1
 P  P1  1  0.10237  0.38457  0.00000  1
 Tl  Tl1  1  0.65290  0.66016  0.00000  1
