CIF file written using JARVIS-Tools package.
data_Mn4VSe5
_symmetry_space_group_name_H-M  'R-3m'
_cell_length_a       15.695
_cell_length_b       15.695
_cell_length_c       15.695
_cell_angle_alpha    13.8635
_cell_angle_beta     13.8635
_cell_angle_gamma    13.8635

_symmetry_Int_Tables_number  166
_chemical_formula_structural  Mn4VSe5
_chemical_formula_sum  Mn4VSe5
_cell_volume  193.16858519451932
_cell_formula_units_Z  1
loop_
  _symmetry_equiv_pos_site_id
 _symmetry_equiv_pos_as_xyz
 1  'x, y, z'
loop_
 _atom_site_type_symbol
 _atom_site_label
 _atom_site_symmetry_multiplicity
 _atom_site_fract_x
 _atom_site_fract_y
 _atom_site_fract_z
 _atom_site_fract_occupancy
 Mn  Mn1  1  0.59935  0.59935  0.59935  1
 Mn  Mn2  1  0.20001  0.20001  0.20001  1
 Mn  Mn3  1  0.79999  0.79999  0.79999  1
 Mn  Mn4  1  0.40065  0.40065  0.40065  1
 Se  Se1  1  0.69908  0.69908  0.69908  1
 Se  Se2  1  0.09983  0.09983  0.09983  1
 Se  Se3  1  0.50000  0.50000  0.50000  1
 Se  Se4  1  0.30092  0.30092  0.30092  1
 Se  Se5  1  0.90017  0.90017  0.90017  1
 V  V1  1  0.00000  0.00000  0.00000  1
