CIF file written using JARVIS-Tools package.
data_La2MnSb4
_symmetry_space_group_name_H-M  'P-4m2'
_cell_length_a       4.49303
_cell_length_b       4.49303
_cell_length_c       10.0761
_cell_angle_alpha    90
_cell_angle_beta     90
_cell_angle_gamma    90

_symmetry_Int_Tables_number  115
_chemical_formula_structural  La2MnSb4
_chemical_formula_sum  La2MnSb4
_cell_volume  203.40969356802108
_cell_formula_units_Z  1
loop_
  _symmetry_equiv_pos_site_id
 _symmetry_equiv_pos_as_xyz
 1  'x, y, z'
loop_
 _atom_site_type_symbol
 _atom_site_label
 _atom_site_symmetry_multiplicity
 _atom_site_fract_x
 _atom_site_fract_y
 _atom_site_fract_z
 _atom_site_fract_occupancy
 La  La1  1  0.50000  0.00000  0.75451  1
 La  La2  1  0.00000  0.50000  0.24549  1
 Mn  Mn1  1  0.50000  0.50000  0.00000  1
 Sb  Sb1  1  0.50000  0.00000  0.13615  1
 Sb  Sb2  1  0.00000  0.50000  0.86385  1
 Sb  Sb3  1  0.50000  0.50000  0.50000  1
 Sb  Sb4  1  0.00000  0.00000  0.50000  1
