CIF file written using JARVIS-Tools package.
data_RuCO
_symmetry_space_group_name_H-M  'Pmm2'
_cell_length_a       5.09832
_cell_length_b       2.77117
_cell_length_c       2.71098
_cell_angle_alpha    90
_cell_angle_beta     90
_cell_angle_gamma    90.0542

_symmetry_Int_Tables_number  25
_chemical_formula_structural  RuCO
_chemical_formula_sum  RuCO
_cell_volume  38.30144811647445
_cell_formula_units_Z  1
loop_
  _symmetry_equiv_pos_site_id
 _symmetry_equiv_pos_as_xyz
 1  'x, y, z'
loop_
 _atom_site_type_symbol
 _atom_site_label
 _atom_site_symmetry_multiplicity
 _atom_site_fract_x
 _atom_site_fract_y
 _atom_site_fract_z
 _atom_site_fract_occupancy
 C  C1  1  -0.31209  -0.26656  0.00000  1
 O  O1  1  0.45450  -0.26635  0.00000  1
 Ru  Ru1  1  0.03641  0.73334  0.00000  1
