CIF file written using JARVIS-Tools package.
data_CeY4Mg5
_symmetry_space_group_name_H-M  'P4/mmm'
_cell_length_a       3.76954
_cell_length_b       3.76954
_cell_length_c       18.9677
_cell_angle_alpha    90
_cell_angle_beta     90
_cell_angle_gamma    90

_symmetry_Int_Tables_number  123
_chemical_formula_structural  CeY4Mg5
_chemical_formula_sum  CeY4Mg5
_cell_volume  269.51947360211165
_cell_formula_units_Z  1
loop_
  _symmetry_equiv_pos_site_id
 _symmetry_equiv_pos_as_xyz
 1  'x, y, z'
loop_
 _atom_site_type_symbol
 _atom_site_label
 _atom_site_symmetry_multiplicity
 _atom_site_fract_x
 _atom_site_fract_y
 _atom_site_fract_z
 _atom_site_fract_occupancy
 Ce  Ce1  1  0.00000  0.00000  0.00000  1
 Mg  Mg1  1  0.50000  0.50000  0.10386  1
 Mg  Mg2  1  0.50000  0.50000  0.30132  1
 Mg  Mg3  1  0.50000  0.50000  0.50000  1
 Mg  Mg4  1  0.50000  0.50000  0.69868  1
 Mg  Mg5  1  0.50000  0.50000  0.89614  1
 Y  Y1  1  0.00000  0.00000  0.20142  1
 Y  Y2  1  0.00000  0.00000  0.40098  1
 Y  Y3  1  0.00000  0.00000  0.59902  1
 Y  Y4  1  0.00000  0.00000  0.79858  1
