CIF file written using JARVIS-Tools package.
data_La2CrMoO6
_symmetry_space_group_name_H-M  'I4/m'
_cell_length_a       5.54999
_cell_length_b       5.54996
_cell_length_c       5.57324
_cell_angle_alpha    60.1359
_cell_angle_beta     60.1375
_cell_angle_gamma    89.9999

_symmetry_Int_Tables_number  87
_chemical_formula_structural  La2CrMoO6
_chemical_formula_sum  La2CrMoO6
_cell_volume  121.88743648962742
_cell_formula_units_Z  1
loop_
  _symmetry_equiv_pos_site_id
 _symmetry_equiv_pos_as_xyz
 1  'x, y, z'
loop_
 _atom_site_type_symbol
 _atom_site_label
 _atom_site_symmetry_multiplicity
 _atom_site_fract_x
 _atom_site_fract_y
 _atom_site_fract_z
 _atom_site_fract_occupancy
 Cr  Cr1  1  -0.00000  -0.00000  0.00000  1
 La  La1  1  0.25000  0.75000  0.50000  1
 La  La2  1  0.75000  0.25000  0.50000  1
 Mo  Mo1  1  0.50000  0.50000  0.00000  1
 O  O1  1  0.75436  0.75435  0.49128  1
 O  O2  1  0.24564  0.24565  0.50872  1
 O  O3  1  0.30004  0.19020  -0.00001  1
 O  O4  1  0.69996  0.80980  0.00001  1
 O  O5  1  0.80981  0.30004  0.00001  1
 O  O6  1  0.19019  0.69996  -0.00001  1
