CIF file written using JARVIS-Tools package.
data_LaMgFeCuO6
_symmetry_space_group_name_H-M  'Pc'
_cell_length_a       5.17635
_cell_length_b       7.82728
_cell_length_c       5.35562
_cell_angle_alpha    90
_cell_angle_beta     90
_cell_angle_gamma    90.1366

_symmetry_Int_Tables_number  7
_chemical_formula_structural  LaMgFeCuO6
_chemical_formula_sum  La2Mg2Fe2Cu2O2
_cell_volume  216.99165210659254
_cell_formula_units_Z  2
loop_
  _symmetry_equiv_pos_site_id
 _symmetry_equiv_pos_as_xyz
 1  'x, y, z'
loop_
 _atom_site_type_symbol
 _atom_site_label
 _atom_site_symmetry_multiplicity
 _atom_site_fract_x
 _atom_site_fract_y
 _atom_site_fract_z
 _atom_site_fract_occupancy
 Cu  Cu1  1  0.49668  0.00019  0.00476  1
 Cu  Cu2  1  0.99667  0.50019  0.49524  1
 Fe  Fe1  1  0.50187  0.50250  0.99269  1
 Fe  Fe2  1  0.00187  0.00250  0.50731  1
 La  La1  1  0.98936  0.25057  0.04025  1
 La  La2  1  0.48936  0.75057  0.45975  1
 Mg  Mg1  1  0.53332  0.24647  0.55903  1
 Mg  Mg2  1  0.03332  0.74647  0.94097  1
 O  O1  1  0.63925  0.72265  0.01495  1
 O  O2  1  0.26388  0.94448  0.73800  1
 O  O3  1  0.18098  0.93841  0.20616  1
 O  O4  1  0.68098  0.43841  0.29384  1
 O  O5  1  0.13925  0.22265  0.48505  1
 O  O6  1  0.26950  0.56429  0.73892  1
 O  O7  1  0.92723  0.77457  0.55012  1
 O  O8  1  0.42723  0.27457  0.94988  1
 O  O9  1  0.19793  0.55588  0.19303  1
 O  O10  1  0.76950  0.06429  0.76108  1
 O  O11  1  0.69793  0.05588  0.30697  1
 O  O12  1  0.76388  0.44448  0.76200  1
