CIF file written using JARVIS-Tools package.
data_U7Mo
_symmetry_space_group_name_H-M  'Pmmm'
_cell_length_a       3.05802
_cell_length_b       5.21972
_cell_length_c       10.1992
_cell_angle_alpha    90
_cell_angle_beta     90
_cell_angle_gamma    90

_symmetry_Int_Tables_number  47
_chemical_formula_structural  U7Mo
_chemical_formula_sum  U7Mo
_cell_volume  162.7997731322075
_cell_formula_units_Z  1
loop_
  _symmetry_equiv_pos_site_id
 _symmetry_equiv_pos_as_xyz
 1  'x, y, z'
loop_
 _atom_site_type_symbol
 _atom_site_label
 _atom_site_symmetry_multiplicity
 _atom_site_fract_x
 _atom_site_fract_y
 _atom_site_fract_z
 _atom_site_fract_occupancy
 Mo  Mo1  1  0.00000  0.50000  0.00000  1
 U  U1  1  0.50000  0.50000  0.75533  1
 U  U2  1  0.50000  0.50000  0.24467  1
 U  U3  1  0.50000  0.00000  0.00000  1
 U  U4  1  0.50000  0.00000  0.50000  1
 U  U5  1  0.00000  0.00000  0.75976  1
 U  U6  1  0.00000  0.00000  0.24024  1
 U  U7  1  0.00000  0.50000  0.50000  1
