CIF file written using JARVIS-Tools package.
data_LiMn2NiO6
_symmetry_space_group_name_H-M  'C2/c'
_cell_length_a       4.96047
_cell_length_b       4.96041
_cell_length_c       10.0628
_cell_angle_alpha    84.3419
_cell_angle_beta     95.6542
_cell_angle_gamma    120.697

_symmetry_Int_Tables_number  15
_chemical_formula_structural  LiMn2NiO6
_chemical_formula_sum  Li2Mn4Ni2O2
_cell_volume  211.5363565643872
_cell_formula_units_Z  2
loop_
  _symmetry_equiv_pos_site_id
 _symmetry_equiv_pos_as_xyz
 1  'x, y, z'
loop_
 _atom_site_type_symbol
 _atom_site_label
 _atom_site_symmetry_multiplicity
 _atom_site_fract_x
 _atom_site_fract_y
 _atom_site_fract_z
 _atom_site_fract_occupancy
 Li  Li1  1  0.35418  0.85428  0.24999  1
 Li  Li2  1  0.64582  0.14572  0.75001  1
 Mn  Mn1  1  0.16636  0.83426  0.50483  1
 Mn  Mn2  1  0.33426  0.66636  0.99518  1
 Mn  Mn3  1  0.66574  0.33364  0.00482  1
 Mn  Mn4  1  0.83364  0.16574  0.49517  1
 Ni  Ni1  1  0.50000  0.50000  0.50000  1
 Ni  Ni2  1  0.00000  -0.00000  0.00000  1
 O  O1  1  0.51866  0.84620  0.60330  1
 O  O2  1  0.34173  0.32079  0.09709  1
 O  O3  1  0.34624  0.01869  0.89670  1
 O  O4  1  0.84170  0.48031  0.59865  1
 O  O5  1  0.65376  0.98132  0.10330  1
 O  O6  1  0.65827  0.67921  0.90291  1
 O  O7  1  0.01965  0.65827  0.09865  1
 O  O8  1  0.98035  0.34173  0.90135  1
 O  O9  1  0.48134  0.15380  0.39670  1
 O  O10  1  0.17917  0.15824  0.59709  1
 O  O11  1  0.82083  0.84176  0.40291  1
 O  O12  1  0.15830  0.51969  0.40135  1
