CIF file written using JARVIS-Tools package.
data_V4O3F5
_symmetry_space_group_name_H-M  'Imm2'
_cell_length_a       5.62323
_cell_length_b       5.62323
_cell_length_c       5.62323
_cell_angle_alpha    114.048
_cell_angle_beta     109.737
_cell_angle_gamma    104.762

_symmetry_Int_Tables_number  44
_chemical_formula_structural  V4O3F5
_chemical_formula_sum  V4O3F5
_cell_volume  135.98155145783883
_cell_formula_units_Z  1
loop_
  _symmetry_equiv_pos_site_id
 _symmetry_equiv_pos_as_xyz
 1  'x, y, z'
loop_
 _atom_site_type_symbol
 _atom_site_label
 _atom_site_symmetry_multiplicity
 _atom_site_fract_x
 _atom_site_fract_y
 _atom_site_fract_z
 _atom_site_fract_occupancy
 F  F1  1  0.80161  0.05453  0.25391  1
 F  F2  1  0.80161  0.54770  0.74708  1
 F  F3  1  0.29313  0.50000  0.79313  1
 F  F4  1  0.19937  0.45230  0.25391  1
 F  F5  1  0.19937  0.94547  0.74708  1
 O  O1  1  0.68016  0.50000  0.18016  1
 O  O2  1  0.71350  0.00000  0.71350  1
 O  O3  1  0.30292  -0.00000  0.30292  1
 V  V1  1  0.51287  0.23237  0.74524  1
 V  V2  1  0.51287  0.76763  0.28050  1
 V  V3  1  0.97286  0.50000  0.47286  1
 V  V4  1  0.00974  0.00000  0.00974  1
