CIF file written using JARVIS-Tools package.
data_LiMn5O7F
_symmetry_space_group_name_H-M  'R3m'
_cell_length_a       5.95621
_cell_length_b       5.95622
_cell_length_c       5.95622
_cell_angle_alpha    61.2119
_cell_angle_beta     61.2119
_cell_angle_gamma    61.2119

_symmetry_Int_Tables_number  160
_chemical_formula_structural  LiMn5O7F
_chemical_formula_sum  LiMn5O7F
_cell_volume  153.48844929962613
_cell_formula_units_Z  1
loop_
  _symmetry_equiv_pos_site_id
 _symmetry_equiv_pos_as_xyz
 1  'x, y, z'
loop_
 _atom_site_type_symbol
 _atom_site_label
 _atom_site_symmetry_multiplicity
 _atom_site_fract_x
 _atom_site_fract_y
 _atom_site_fract_z
 _atom_site_fract_occupancy
 F  F1  1  0.63574  0.63574  0.63574  1
 Li  Li1  1  0.76345  0.76345  0.76345  1
 Mn  Mn1  1  0.37722  0.37722  0.37722  1
 Mn  Mn2  1  0.98649  0.98649  0.98649  1
 Mn  Mn3  1  0.36736  0.87610  0.36736  1
 Mn  Mn4  1  0.36736  0.36736  0.87610  1
 Mn  Mn5  1  0.87610  0.36736  0.36736  1
 O  O1  1  0.17521  0.61759  0.61759  1
 O  O2  1  0.61759  0.61759  0.17521  1
 O  O3  1  0.13394  0.13394  0.57684  1
 O  O4  1  0.12117  0.12117  0.12117  1
 O  O5  1  0.57684  0.13394  0.13394  1
 O  O6  1  0.13394  0.57684  0.13394  1
 O  O7  1  0.61759  0.17521  0.61759  1
