CIF file written using JARVIS-Tools package.
data_LiCaN
_symmetry_space_group_name_H-M  'Pmmm'
_cell_length_a       5.97578
_cell_length_b       4.53967
_cell_length_c       4.06288
_cell_angle_alpha    90
_cell_angle_beta     90
_cell_angle_gamma    40.7934

_symmetry_Int_Tables_number  47
_chemical_formula_structural  LiCaN
_chemical_formula_sum  LiCaN
_cell_volume  72.00915100527656
_cell_formula_units_Z  1
loop_
  _symmetry_equiv_pos_site_id
 _symmetry_equiv_pos_as_xyz
 1  'x, y, z'
loop_
 _atom_site_type_symbol
 _atom_site_label
 _atom_site_symmetry_multiplicity
 _atom_site_fract_x
 _atom_site_fract_y
 _atom_site_fract_z
 _atom_site_fract_occupancy
 Ca  Ca1  1  -0.07601  -0.08592  0.00000  1
 Li  Li1  1  0.42402  -0.08594  0.00000  1
 N  N1  1  -0.07598  0.41407  0.00000  1
