CIF file written using JARVIS-Tools package.
data_Ta2Ti2NbC5
_symmetry_space_group_name_H-M  'R3m'
_cell_length_a       12.9089
_cell_length_b       12.9089
_cell_length_c       12.9089
_cell_angle_alpha    13.97
_cell_angle_beta     13.97
_cell_angle_gamma    13.97

_symmetry_Int_Tables_number  160
_chemical_formula_structural  Ta2Ti2NbC5
_chemical_formula_sum  Ta2Ti2NbC5
_cell_volume  109.11025372575328
_cell_formula_units_Z  1
loop_
  _symmetry_equiv_pos_site_id
 _symmetry_equiv_pos_as_xyz
 1  'x, y, z'
loop_
 _atom_site_type_symbol
 _atom_site_label
 _atom_site_symmetry_multiplicity
 _atom_site_fract_x
 _atom_site_fract_y
 _atom_site_fract_z
 _atom_site_fract_occupancy
 C  C1  1  0.40022  0.40022  0.40022  1
 C  C2  1  0.19912  0.19912  0.19912  1
 C  C3  1  0.79836  0.79836  0.79836  1
 C  C4  1  0.00241  0.00241  0.00241  1
 C  C5  1  0.60002  0.60002  0.60002  1
 Nb  Nb1  1  0.30165  0.30165  0.30165  1
 Ta  Ta1  1  0.89999  0.89999  0.89999  1
 Ta  Ta2  1  0.49825  0.49825  0.49825  1
 Ti  Ti1  1  0.09862  0.09862  0.09862  1
 Ti  Ti2  1  0.70137  0.70137  0.70137  1
