CIF file written using JARVIS-Tools package.
data_Er2US3O2
_symmetry_space_group_name_H-M  'I4mm'
_cell_length_a       10.7753
_cell_length_b       10.7753
_cell_length_c       10.7753
_cell_angle_alpha    159.815
_cell_angle_beta     159.815
_cell_angle_gamma    28.6975

_symmetry_Int_Tables_number  107
_chemical_formula_structural  Er2US3O2
_chemical_formula_sum  Er2US3O2
_cell_volume  148.88196928824573
_cell_formula_units_Z  1
loop_
  _symmetry_equiv_pos_site_id
 _symmetry_equiv_pos_as_xyz
 1  'x, y, z'
loop_
 _atom_site_type_symbol
 _atom_site_label
 _atom_site_symmetry_multiplicity
 _atom_site_fract_x
 _atom_site_fract_y
 _atom_site_fract_z
 _atom_site_fract_occupancy
 Er  Er1  1  0.49785  0.49785  -0.00000  1
 Er  Er2  1  0.81188  0.81188  -0.00000  1
 O  O1  1  0.74858  0.24858  0.50000  1
 O  O2  1  0.24858  0.74858  0.50000  1
 S  S1  1  0.62816  0.62816  0.00000  1
 S  S2  1  0.37041  0.37041  0.00000  1
 S  S3  1  0.00513  0.00513  -0.00000  1
 U  U1  1  0.18940  0.18940  0.00000  1
