CIF file written using JARVIS-Tools package.
data_SrPrFeCoO6
_symmetry_space_group_name_H-M  'P1'
_cell_length_a       5.40037
_cell_length_b       5.40204
_cell_length_c       5.38932
_cell_angle_alpha    119.961
_cell_angle_beta     119.955
_cell_angle_gamma    89.526

_symmetry_Int_Tables_number  1
_chemical_formula_structural  SrPrFeCoO6
_chemical_formula_sum  SrPrFeCoO6
_cell_volume  111.76296582196123
_cell_formula_units_Z  1
loop_
  _symmetry_equiv_pos_site_id
 _symmetry_equiv_pos_as_xyz
 1  'x, y, z'
loop_
 _atom_site_type_symbol
 _atom_site_label
 _atom_site_symmetry_multiplicity
 _atom_site_fract_x
 _atom_site_fract_y
 _atom_site_fract_z
 _atom_site_fract_occupancy
 Co  Co1  1  0.00008  0.49988  -0.00002  1
 Fe  Fe1  1  0.49943  0.00026  -0.00014  1
 O  O1  1  0.27051  0.72081  -0.00981  1
 O  O2  1  0.21150  0.20950  -0.04098  1
 O  O3  1  0.71894  0.26839  0.98888  1
 O  O4  1  0.80600  0.80786  0.05775  1
 O  O5  1  0.27100  0.71908  0.50114  1
 O  O6  1  0.71810  0.26956  0.49839  1
 Pr  Pr1  1  0.25399  0.25464  0.50451  1
 Sr  Sr1  1  0.75045  0.75002  0.50028  1
