CIF file written using JARVIS-Tools package.
data_NbFeSi
_symmetry_space_group_name_H-M  'Cmcm'
_cell_length_a       4.94968
_cell_length_b       4.94969
_cell_length_c       4.96154
_cell_angle_alpha    90
_cell_angle_beta     90
_cell_angle_gamma    137.544

_symmetry_Int_Tables_number  63
_chemical_formula_structural  NbFeSi
_chemical_formula_sum  Nb2Fe2Si2
_cell_volume  82.051739392083
_cell_formula_units_Z  2
loop_
  _symmetry_equiv_pos_site_id
 _symmetry_equiv_pos_as_xyz
 1  'x, y, z'
loop_
 _atom_site_type_symbol
 _atom_site_label
 _atom_site_symmetry_multiplicity
 _atom_site_fract_x
 _atom_site_fract_y
 _atom_site_fract_z
 _atom_site_fract_occupancy
 Fe  Fe1  1  0.00000  0.00000  0.50000  1
 Fe  Fe2  1  0.00000  0.00000  0.00000  1
 Nb  Nb1  1  0.29067  0.70933  0.75000  1
 Nb  Nb2  1  0.70933  0.29067  0.25000  1
 Si  Si1  1  0.41562  0.58438  0.25000  1
 Si  Si2  1  0.58438  0.41562  0.75000  1
