CIF file written using JARVIS-Tools package.
data_CaN2
_symmetry_space_group_name_H-M  'C2/m'
_cell_length_a       3.93447
_cell_length_b       3.8882
_cell_length_c       3.57319
_cell_angle_alpha    117.038
_cell_angle_beta     117.292
_cell_angle_gamma    99.4377

_symmetry_Int_Tables_number  12
_chemical_formula_structural  CaN2
_chemical_formula_sum  CaN2
_cell_volume  38.18080815103801
_cell_formula_units_Z  1
loop_
  _symmetry_equiv_pos_site_id
 _symmetry_equiv_pos_as_xyz
 1  'x, y, z'
loop_
 _atom_site_type_symbol
 _atom_site_label
 _atom_site_symmetry_multiplicity
 _atom_site_fract_x
 _atom_site_fract_y
 _atom_site_fract_z
 _atom_site_fract_occupancy
 Ca  Ca1  1  0.09636  0.07532  0.09550  1
 N  N1  1  0.49048  0.68038  0.09560  1
 N  N2  1  0.70226  0.47026  0.09538  1
