CIF file written using JARVIS-Tools package.
data_Li4CoOF5
_symmetry_space_group_name_H-M  'C2/m'
_cell_length_a       5.33537
_cell_length_b       7.21773
_cell_length_c       6.48487
_cell_angle_alpha    89.9979
_cell_angle_beta     113.477
_cell_angle_gamma    109.769

_symmetry_Int_Tables_number  12
_chemical_formula_structural  Li4CoOF5
_chemical_formula_sum  Li8Co2O2F0
_cell_volume  212.91496784218123
_cell_formula_units_Z  2
loop_
  _symmetry_equiv_pos_site_id
 _symmetry_equiv_pos_as_xyz
 1  'x, y, z'
loop_
 _atom_site_type_symbol
 _atom_site_label
 _atom_site_symmetry_multiplicity
 _atom_site_fract_x
 _atom_site_fract_y
 _atom_site_fract_z
 _atom_site_fract_occupancy
 Co  Co1  1  0.00017  0.50026  0.00091  1
 Co  Co2  1  0.00017  0.00025  0.00091  1
 F  F1  1  0.37159  0.09310  0.32310  1
 F  F2  1  0.62876  0.90741  0.67873  1
 F  F3  1  0.62876  0.40741  0.67873  1
 F  F4  1  0.29691  0.07445  0.87908  1
 F  F5  1  0.29691  0.57445  0.87908  1
 F  F6  1  0.70342  0.92606  0.12273  1
 F  F7  1  0.70342  0.42606  0.12273  1
 F  F8  1  0.00018  0.25026  0.50090  1
 F  F9  1  0.37159  0.59310  0.32311  1
 F  F10  1  0.00018  0.75027  0.50090  1
 Li  Li1  1  0.72565  0.68164  0.61872  1
 Li  Li2  1  0.33020  0.33278  0.80346  1
 Li  Li3  1  0.33020  0.83278  0.80346  1
 Li  Li4  1  0.67017  0.66774  0.19838  1
 Li  Li5  1  0.67017  0.16774  0.19838  1
 Li  Li6  1  0.27473  0.81888  0.38312  1
 Li  Li7  1  0.27473  0.31888  0.38312  1
 Li  Li8  1  0.72565  0.18164  0.61872  1
 O  O1  1  0.00017  0.25025  0.00091  1
 O  O2  1  0.00017  0.75026  0.00091  1
