CIF file written using JARVIS-Tools package.
data_LiCaO
_symmetry_space_group_name_H-M  'Pm'
_cell_length_a       7.011
_cell_length_b       6.11427
_cell_length_c       3.84011
_cell_angle_alpha    90
_cell_angle_beta     90
_cell_angle_gamma    148.933

_symmetry_Int_Tables_number  6
_chemical_formula_structural  LiCaO
_chemical_formula_sum  LiCaO
_cell_volume  84.94750818729564
_cell_formula_units_Z  1
loop_
  _symmetry_equiv_pos_site_id
 _symmetry_equiv_pos_as_xyz
 1  'x, y, z'
loop_
 _atom_site_type_symbol
 _atom_site_label
 _atom_site_symmetry_multiplicity
 _atom_site_fract_x
 _atom_site_fract_y
 _atom_site_fract_z
 _atom_site_fract_occupancy
 Ca  Ca1  1  0.34074  0.12932  0.00000  1
 Li  Li1  1  0.82723  0.07426  0.00000  1
 O  O1  1  0.83203  0.79642  0.00000  1
