CIF file written using JARVIS-Tools package.
data_CaTiS
_symmetry_space_group_name_H-M  'Pmmm'
_cell_length_a       7.04327
_cell_length_b       4.61757
_cell_length_c       3.4781
_cell_angle_alpha    90
_cell_angle_beta     90
_cell_angle_gamma    49.8224

_symmetry_Int_Tables_number  47
_chemical_formula_structural  CaTiS
_chemical_formula_sum  CaTiS
_cell_volume  86.4271349935199
_cell_formula_units_Z  1
loop_
  _symmetry_equiv_pos_site_id
 _symmetry_equiv_pos_as_xyz
 1  'x, y, z'
loop_
 _atom_site_type_symbol
 _atom_site_label
 _atom_site_symmetry_multiplicity
 _atom_site_fract_x
 _atom_site_fract_y
 _atom_site_fract_z
 _atom_site_fract_occupancy
 Ca  Ca1  1  0.43980  -0.08045  0.00000  1
 S  S1  1  -0.06020  0.41966  0.00000  1
 Ti  Ti1  1  -0.06033  -0.08023  0.00000  1
