CIF file written using JARVIS-Tools package.
data_Li2TiNiO4
_symmetry_space_group_name_H-M  'P2/m'
_cell_length_a       2.95713
_cell_length_b       9.68404
_cell_length_c       5.0984
_cell_angle_alpha    78.9645
_cell_angle_beta     89.9999
_cell_angle_gamma    89.9999

_symmetry_Int_Tables_number  10
_chemical_formula_structural  Li2TiNiO4
_chemical_formula_sum  Li4Ti2Ni2O8
_cell_volume  143.30321770547684
_cell_formula_units_Z  2
loop_
  _symmetry_equiv_pos_site_id
 _symmetry_equiv_pos_as_xyz
 1  'x, y, z'
loop_
 _atom_site_type_symbol
 _atom_site_label
 _atom_site_symmetry_multiplicity
 _atom_site_fract_x
 _atom_site_fract_y
 _atom_site_fract_z
 _atom_site_fract_occupancy
 Li  Li1  1  0.00000  0.50000  0.50000  1
 Li  Li2  1  0.00000  0.00000  0.00000  1
 Li  Li3  1  0.50000  0.75000  0.25000  1
 Li  Li4  1  0.50000  0.25000  0.75000  1
 Ni  Ni1  1  0.50000  0.00000  0.50000  1
 Ni  Ni2  1  0.50000  0.50000  0.00000  1
 O  O1  1  0.00000  0.12773  0.60436  1
 O  O2  1  0.00000  0.62773  0.10437  1
 O  O3  1  1.00000  0.87227  0.39564  1
 O  O4  1  1.00000  0.37227  0.89563  1
 O  O5  1  0.50000  0.86372  0.86954  1
 O  O6  1  0.50000  0.36372  0.36954  1
 O  O7  1  0.50000  0.13628  0.13046  1
 O  O8  1  0.50000  0.63628  0.63046  1
 Ti  Ti1  1  0.00000  0.75000  0.75000  1
 Ti  Ti2  1  0.00000  0.25000  0.25000  1
