CIF file written using JARVIS-Tools package.
data_LiVNiO4
_symmetry_space_group_name_H-M  'Cmcm'
_cell_length_a       5.08985
_cell_length_b       6.1597
_cell_length_c       5.08984
_cell_angle_alpha    90
_cell_angle_beta     66.5549
_cell_angle_gamma    90

_symmetry_Int_Tables_number  63
_chemical_formula_structural  LiVNiO4
_chemical_formula_sum  Li2V2Ni2O8
_cell_volume  146.4020878454825
_cell_formula_units_Z  2
loop_
  _symmetry_equiv_pos_site_id
 _symmetry_equiv_pos_as_xyz
 1  'x, y, z'
loop_
 _atom_site_type_symbol
 _atom_site_label
 _atom_site_symmetry_multiplicity
 _atom_site_fract_x
 _atom_site_fract_y
 _atom_site_fract_z
 _atom_site_fract_occupancy
 Li  Li1  1  0.33543  0.75000  0.33543  1
 Li  Li2  1  0.66457  0.25000  0.66457  1
 Ni  Ni1  1  0.00000  0.50000  0.00000  1
 Ni  Ni2  1  0.00000  0.00000  0.00000  1
 O  O1  1  0.23478  0.02571  0.23478  1
 O  O2  1  0.23478  0.47429  0.23478  1
 O  O3  1  0.76522  0.97429  0.76522  1
 O  O4  1  0.76522  0.52571  0.76522  1
 O  O5  1  0.73190  0.25000  0.23393  1
 O  O6  1  0.76607  0.75000  0.26810  1
 O  O7  1  0.23393  0.25000  0.73190  1
 O  O8  1  0.26810  0.75000  0.76607  1
 V  V1  1  0.35231  0.25000  0.35231  1
 V  V2  1  0.64769  0.75000  0.64769  1
