CIF file written using JARVIS-Tools package.
data_CdCl2
_symmetry_space_group_name_H-M  'P-4m2'
_cell_length_a       4.05877
_cell_length_b       4.05877
_cell_length_c       5.17963
_cell_angle_alpha    90
_cell_angle_beta     90
_cell_angle_gamma    90

_symmetry_Int_Tables_number  115
_chemical_formula_structural  CdCl2
_chemical_formula_sum  CdCl2
_cell_volume  85.32731074066986
_cell_formula_units_Z  1
loop_
  _symmetry_equiv_pos_site_id
 _symmetry_equiv_pos_as_xyz
 1  'x, y, z'
loop_
 _atom_site_type_symbol
 _atom_site_label
 _atom_site_symmetry_multiplicity
 _atom_site_fract_x
 _atom_site_fract_y
 _atom_site_fract_z
 _atom_site_fract_occupancy
 Cd  Cd1  1  0.50000  0.50000  0.50000  1
 Cl  Cl1  1  0.00000  0.50000  0.21587  1
 Cl  Cl2  1  0.50000  0.00000  0.78413  1
