CIF file written using JARVIS-Tools package.
data_CaVS
_symmetry_space_group_name_H-M  'P4mm'
_cell_length_a       3.30199
_cell_length_b       3.30199
_cell_length_c       7.82276
_cell_angle_alpha    90
_cell_angle_beta     90
_cell_angle_gamma    90

_symmetry_Int_Tables_number  99
_chemical_formula_structural  CaVS
_chemical_formula_sum  CaVS
_cell_volume  85.29276724012222
_cell_formula_units_Z  1
loop_
  _symmetry_equiv_pos_site_id
 _symmetry_equiv_pos_as_xyz
 1  'x, y, z'
loop_
 _atom_site_type_symbol
 _atom_site_label
 _atom_site_symmetry_multiplicity
 _atom_site_fract_x
 _atom_site_fract_y
 _atom_site_fract_z
 _atom_site_fract_occupancy
 Ca  Ca1  1  0.00000  0.00000  0.32844  1
 S  S1  1  0.00000  0.00000  -0.00537  1
 V  V1  1  0.00000  0.00000  0.72363  1
