CIF file written using JARVIS-Tools package.
data_CaGe2Pt2
_symmetry_space_group_name_H-M  'P4/nmm'
_cell_length_a       4.34396
_cell_length_b       4.34399
_cell_length_c       10.2331
_cell_angle_alpha    89.9988
_cell_angle_beta     90
_cell_angle_gamma    90

_symmetry_Int_Tables_number  129
_chemical_formula_structural  CaGe2Pt2
_chemical_formula_sum  Ca2Ge4Pt4
_cell_volume  193.0999416480443
_cell_formula_units_Z  2
loop_
  _symmetry_equiv_pos_site_id
 _symmetry_equiv_pos_as_xyz
 1  'x, y, z'
loop_
 _atom_site_type_symbol
 _atom_site_label
 _atom_site_symmetry_multiplicity
 _atom_site_fract_x
 _atom_site_fract_y
 _atom_site_fract_z
 _atom_site_fract_occupancy
 Ca  Ca1  1  0.25441  0.24999  0.75054  1
 Ca  Ca2  1  0.75441  0.75001  0.24946  1
 Ge  Ge1  1  0.75433  0.75003  0.62943  1
 Ge  Ge2  1  0.75446  0.25000  -0.00000  1
 Ge  Ge3  1  0.25446  0.75000  0.00000  1
 Ge  Ge4  1  0.25433  0.24997  0.37057  1
 Pt  Pt1  1  0.25434  0.74996  0.50002  1
 Pt  Pt2  1  0.75447  0.75001  0.87034  1
 Pt  Pt3  1  0.25447  0.24999  0.12966  1
 Pt  Pt4  1  0.75434  0.25004  0.49998  1
