CIF file written using JARVIS-Tools package.
data_LiCoSiO4
_symmetry_space_group_name_H-M  'Pc'
_cell_length_a       5.27712
_cell_length_b       8.09751
_cell_length_c       8.25196
_cell_angle_alpha    73.8054
_cell_angle_beta     90
_cell_angle_gamma    90

_symmetry_Int_Tables_number  7
_chemical_formula_structural  LiCoSiO4
_chemical_formula_sum  Li4Co4Si4O6
_cell_volume  338.6270969979289
_cell_formula_units_Z  4
loop_
  _symmetry_equiv_pos_site_id
 _symmetry_equiv_pos_as_xyz
 1  'x, y, z'
loop_
 _atom_site_type_symbol
 _atom_site_label
 _atom_site_symmetry_multiplicity
 _atom_site_fract_x
 _atom_site_fract_y
 _atom_site_fract_z
 _atom_site_fract_occupancy
 Co  Co1  1  0.33258  0.13414  0.20096  1
 Co  Co2  1  0.83280  0.62608  0.39329  1
 Co  Co3  1  0.66742  0.13414  0.70096  1
 Co  Co4  1  0.16720  0.62608  0.89329  1
 Li  Li1  1  0.84103  0.03044  0.07698  1
 Li  Li2  1  0.33249  0.49626  0.28296  1
 Li  Li3  1  0.15897  0.03044  0.57698  1
 Li  Li4  1  0.66751  0.49626  0.78296  1
 O  O1  1  0.37503  0.67339  0.05632  1
 O  O2  1  0.68726  0.43425  0.34359  1
 O  O3  1  0.78555  0.78637  0.18533  1
 O  O4  1  0.17526  0.11378  0.00664  1
 O  O5  1  0.67920  0.18833  0.18178  1
 O  O6  1  0.82280  0.61481  0.93844  1
 O  O7  1  0.17720  0.61481  0.43844  1
 O  O8  1  0.12861  0.30203  0.26404  1
 O  O9  1  0.31636  0.94742  0.38752  1
 O  O10  1  0.21445  0.78637  0.68533  1
 O  O11  1  0.32080  0.18833  0.68178  1
 O  O12  1  0.87139  0.30203  0.76404  1
 O  O13  1  0.82474  0.11378  0.50664  1
 O  O14  1  0.31274  0.43425  0.84359  1
 O  O15  1  0.62497  0.67339  0.55632  1
 O  O16  1  0.68364  0.94742  0.88752  1
 Si  Si1  1  0.66286  0.75203  0.01396  1
 Si  Si2  1  0.83050  0.26187  0.32197  1
 Si  Si3  1  0.33714  0.75203  0.51396  1
 Si  Si4  1  0.16950  0.26187  0.82197  1
