CIF file written using JARVIS-Tools package.
data_Li4Nb2Fe3Co3O16
_symmetry_space_group_name_H-M  'Cm'
_cell_length_a       5.76491
_cell_length_b       5.76491
_cell_length_c       9.3967
_cell_angle_alpha    89.8337
_cell_angle_beta     89.8337
_cell_angle_gamma    59.6132

_symmetry_Int_Tables_number  8
_chemical_formula_structural  Li4Nb2Fe3Co3O16
_chemical_formula_sum  Li4Nb2Fe3Co3O6
_cell_volume  269.3904777495725
_cell_formula_units_Z  1
loop_
  _symmetry_equiv_pos_site_id
 _symmetry_equiv_pos_as_xyz
 1  'x, y, z'
loop_
 _atom_site_type_symbol
 _atom_site_label
 _atom_site_symmetry_multiplicity
 _atom_site_fract_x
 _atom_site_fract_y
 _atom_site_fract_z
 _atom_site_fract_occupancy
 Co  Co1  1  0.16785  0.16785  0.28556  1
 Co  Co2  1  0.83113  0.33749  0.78473  1
 Co  Co3  1  0.33749  0.83113  0.78473  1
 Fe  Fe1  1  0.65576  0.17551  0.28330  1
 Fe  Fe2  1  0.17551  0.65576  0.28330  1
 Fe  Fe3  1  0.83052  0.83052  0.78315  1
 Li  Li1  1  0.66839  0.66839  0.10119  1
 Li  Li2  1  0.33445  0.33445  0.60474  1
 Li  Li3  1  -0.00002  -0.00002  0.50367  1
 Li  Li4  1  0.00030  0.00030  0.00478  1
 Nb  Nb1  1  0.66718  0.66718  0.50593  1
 Nb  Nb2  1  0.33144  0.33144  0.00426  1
 O  O1  1  0.83334  0.32789  0.40118  1
 O  O2  1  0.32789  0.83334  0.40118  1
 O  O3  1  0.48542  0.48542  0.16209  1
 O  O4  1  0.66828  0.66828  0.88780  1
 O  O5  1  -0.00143  -0.00143  0.69216  1
 O  O6  1  -0.00157  -0.00157  0.19407  1
 O  O7  1  0.51816  0.51816  0.66611  1
 O  O8  1  0.16186  0.67387  0.90006  1
 O  O9  1  0.83727  0.83727  0.39989  1
 O  O10  1  0.03622  0.48290  0.16648  1
 O  O11  1  0.48290  0.03622  0.16648  1
 O  O12  1  0.33170  0.33170  0.39097  1
 O  O13  1  0.51654  0.96630  0.66637  1
 O  O14  1  0.16310  0.16310  0.90148  1
 O  O15  1  0.96630  0.51654  0.66637  1
 O  O16  1  0.67387  0.16186  0.90006  1
