CIF file written using JARVIS-Tools package.
data_ScAg3S2
_symmetry_space_group_name_H-M  'R-3m'
_cell_length_a       5.45417
_cell_length_b       5.45417
_cell_length_c       5.45417
_cell_angle_alpha    96.7857
_cell_angle_beta     96.7857
_cell_angle_gamma    96.7857

_symmetry_Int_Tables_number  166
_chemical_formula_structural  ScAg3S2
_chemical_formula_sum  ScAg3S2
_cell_volume  158.5427196235987
_cell_formula_units_Z  1
loop_
  _symmetry_equiv_pos_site_id
 _symmetry_equiv_pos_as_xyz
 1  'x, y, z'
loop_
 _atom_site_type_symbol
 _atom_site_label
 _atom_site_symmetry_multiplicity
 _atom_site_fract_x
 _atom_site_fract_y
 _atom_site_fract_z
 _atom_site_fract_occupancy
 Ag  Ag1  1  0.00000  0.50000  0.00000  1
 Ag  Ag2  1  0.00000  0.00000  0.50000  1
 Ag  Ag3  1  0.50000  0.00000  0.00000  1
 S  S1  1  0.79230  0.79230  0.79231  1
 S  S2  1  0.20770  0.20770  0.20770  1
 Sc  Sc1  1  0.50000  0.50000  0.50000  1
