CIF file written using JARVIS-Tools package.
data_Li5Co2Cu2P4O16
_symmetry_space_group_name_H-M  'P-1'
_cell_length_a       4.75631
_cell_length_b       6.10563
_cell_length_c       10.2093
_cell_angle_alpha    87.4224
_cell_angle_beta     87.3621
_cell_angle_gamma    88.1881

_symmetry_Int_Tables_number  2
_chemical_formula_structural  Li5Co2Cu2P4O16
_chemical_formula_sum  Li5Co2Cu2P4O6
_cell_volume  295.73584329387114
_cell_formula_units_Z  1
loop_
  _symmetry_equiv_pos_site_id
 _symmetry_equiv_pos_as_xyz
 1  'x, y, z'
loop_
 _atom_site_type_symbol
 _atom_site_label
 _atom_site_symmetry_multiplicity
 _atom_site_fract_x
 _atom_site_fract_y
 _atom_site_fract_z
 _atom_site_fract_occupancy
 Co  Co1  1  0.46404  0.27405  0.78354  1
 Co  Co2  1  0.53906  0.72774  0.21854  1
 Cu  Cu1  1  0.94395  0.72842  0.70593  1
 Cu  Cu2  1  0.05887  0.27344  0.29621  1
 Li  Li1  1  0.00169  0.50084  0.00105  1
 Li  Li2  1  0.50139  0.50091  0.50110  1
 Li  Li3  1  0.50136  0.00097  0.50076  1
 Li  Li4  1  0.10065  0.97159  0.12847  1
 Li  Li5  1  0.90255  0.03023  0.87372  1
 O  O1  1  0.80660  0.22703  0.46128  1
 O  O2  1  0.29278  0.73190  0.05187  1
 O  O3  1  0.73642  0.74706  0.89864  1
 O  O4  1  0.70910  0.02028  0.15289  1
 O  O5  1  0.72118  0.43425  0.16904  1
 O  O6  1  0.24338  0.54906  0.34307  1
 O  O7  1  0.20765  0.94545  0.31181  1
 O  O8  1  0.26673  0.25476  0.10346  1
 O  O9  1  0.24203  0.25926  0.60056  1
 O  O10  1  0.29406  0.98153  0.84920  1
 O  O11  1  0.75956  0.45283  0.65898  1
 O  O12  1  0.28198  0.56755  0.83308  1
 O  O13  1  0.76092  0.74262  0.40146  1
 O  O14  1  0.19623  0.77469  0.54086  1
 O  O15  1  0.79551  0.05648  0.69042  1
 O  O16  1  0.71039  0.26995  0.95024  1
 P  P1  1  0.08310  0.75425  0.40193  1
 P  P2  1  0.59129  0.24383  0.09529  1
 P  P3  1  0.91986  0.24758  0.60017  1
 P  P4  1  0.41186  0.75799  0.90681  1
