CIF file written using JARVIS-Tools package.
data_NaCrF4
_symmetry_space_group_name_H-M  'P2/m'
_cell_length_a       4.91224
_cell_length_b       3.08956
_cell_length_c       4.94817
_cell_angle_alpha    90
_cell_angle_beta     91.4665
_cell_angle_gamma    90

_symmetry_Int_Tables_number  10
_chemical_formula_structural  NaCrF4
_chemical_formula_sum  NaCrF4
_cell_volume  75.07219080000282
_cell_formula_units_Z  1
loop_
  _symmetry_equiv_pos_site_id
 _symmetry_equiv_pos_as_xyz
 1  'x, y, z'
loop_
 _atom_site_type_symbol
 _atom_site_label
 _atom_site_symmetry_multiplicity
 _atom_site_fract_x
 _atom_site_fract_y
 _atom_site_fract_z
 _atom_site_fract_occupancy
 Cr  Cr1  1  0.00000  0.00000  0.00000  1
 F  F1  1  0.73204  0.00000  0.72346  1
 F  F2  1  0.17891  0.50000  0.83004  1
 F  F3  1  0.82109  0.50000  0.16997  1
 F  F4  1  0.26796  0.00000  0.27654  1
 Na  Na1  1  0.50000  0.50000  0.50000  1
