CIF file written using JARVIS-Tools package.
data_LiFeF4
_symmetry_space_group_name_H-M  'P-1'
_cell_length_a       4.98176
_cell_length_b       4.65381
_cell_length_c       5.52419
_cell_angle_alpha    90.1134
_cell_angle_beta     91.1601
_cell_angle_gamma    90.6581

_symmetry_Int_Tables_number  2
_chemical_formula_structural  LiFeF4
_chemical_formula_sum  Li2Fe2F8
_cell_volume  128.03854035440514
_cell_formula_units_Z  2
loop_
  _symmetry_equiv_pos_site_id
 _symmetry_equiv_pos_as_xyz
 1  'x, y, z'
loop_
 _atom_site_type_symbol
 _atom_site_label
 _atom_site_symmetry_multiplicity
 _atom_site_fract_x
 _atom_site_fract_y
 _atom_site_fract_z
 _atom_site_fract_occupancy
 F  F1  1  0.58592  0.23735  0.38255  1
 F  F2  1  0.07725  0.27414  0.11070  1
 F  F3  1  0.08427  0.23765  0.61585  1
 F  F4  1  0.57480  0.27447  0.88826  1
 F  F5  1  0.42520  0.72553  0.11174  1
 F  F6  1  0.91573  0.76235  0.38415  1
 F  F7  1  0.92275  0.72586  0.88930  1
 F  F8  1  0.41408  0.76265  0.61745  1
 Fe  Fe1  1  0.75187  0.49654  0.17478  1
 Fe  Fe2  1  0.24813  0.50346  0.82522  1
 Li  Li1  1  0.75005  0.00018  0.65173  1
 Li  Li2  1  0.24995  -0.00018  0.34827  1
