CIF file written using JARVIS-Tools package.
data_NaCrF4
_symmetry_space_group_name_H-M  'P-1'
_cell_length_a       3.12116
_cell_length_b       4.07542
_cell_length_c       5.42136
_cell_angle_alpha    88.8193
_cell_angle_beta     89.3474
_cell_angle_gamma    90.4559

_symmetry_Int_Tables_number  2
_chemical_formula_structural  NaCrF4
_chemical_formula_sum  NaCrF4
_cell_volume  68.93860375639048
_cell_formula_units_Z  1
loop_
  _symmetry_equiv_pos_site_id
 _symmetry_equiv_pos_as_xyz
 1  'x, y, z'
loop_
 _atom_site_type_symbol
 _atom_site_label
 _atom_site_symmetry_multiplicity
 _atom_site_fract_x
 _atom_site_fract_y
 _atom_site_fract_z
 _atom_site_fract_occupancy
 Cr  Cr1  1  0.00000  0.00000  0.00000  1
 F  F1  1  0.49529  0.76307  0.13420  1
 F  F2  1  -0.00216  0.23773  0.29270  1
 F  F3  1  0.50471  0.23693  0.86580  1
 F  F4  1  0.00216  0.76228  0.70730  1
 Na  Na1  1  0.50000  0.50000  0.50000  1
