CIF file written using JARVIS-Tools package.
data_ScP4Ru6
_symmetry_space_group_name_H-M  'P-6m2'
_cell_length_a       6.94133
_cell_length_b       6.94133
_cell_length_c       3.68206
_cell_angle_alpha    90
_cell_angle_beta     90
_cell_angle_gamma    120

_symmetry_Int_Tables_number  187
_chemical_formula_structural  ScP4Ru6
_chemical_formula_sum  ScP4Ru6
_cell_volume  153.64088584886824
_cell_formula_units_Z  1
loop_
  _symmetry_equiv_pos_site_id
 _symmetry_equiv_pos_as_xyz
 1  'x, y, z'
loop_
 _atom_site_type_symbol
 _atom_site_label
 _atom_site_symmetry_multiplicity
 _atom_site_fract_x
 _atom_site_fract_y
 _atom_site_fract_z
 _atom_site_fract_occupancy
 P  P1  1  0.18618  0.37236  0.50000  1
 P  P2  1  0.62764  0.81382  0.50000  1
 P  P3  1  0.18618  0.81382  0.50000  1
 P  P4  1  0.66667  0.33333  0.00000  1
 Ru  Ru1  1  0.80389  0.60779  0.50000  1
 Ru  Ru2  1  0.39221  0.19611  0.50000  1
 Ru  Ru3  1  0.80389  0.19611  0.50000  1
 Ru  Ru4  1  0.46441  0.92882  0.00000  1
 Ru  Ru5  1  0.07118  0.53559  0.00000  1
 Ru  Ru6  1  0.46441  0.53559  0.00000  1
 Sc  Sc1  1  0.00000  0.00000  0.00000  1
