CIF file written using JARVIS-Tools package.
data_NaCrF4
_symmetry_space_group_name_H-M  'I-4m2'
_cell_length_a       6.14782
_cell_length_b       6.14782
_cell_length_c       6.14782
_cell_angle_alpha    142.922
_cell_angle_beta     142.922
_cell_angle_gamma    53.4426

_symmetry_Int_Tables_number  119
_chemical_formula_structural  NaCrF4
_chemical_formula_sum  NaCrF4
_cell_volume  83.92618510089596
_cell_formula_units_Z  1
loop_
  _symmetry_equiv_pos_site_id
 _symmetry_equiv_pos_as_xyz
 1  'x, y, z'
loop_
 _atom_site_type_symbol
 _atom_site_label
 _atom_site_symmetry_multiplicity
 _atom_site_fract_x
 _atom_site_fract_y
 _atom_site_fract_z
 _atom_site_fract_occupancy
 Cr  Cr1  1  0.50000  0.50000  0.00000  1
 F  F1  1  0.32949  0.32949  0.00000  1
 F  F2  1  0.67051  0.67051  0.00000  1
 F  F3  1  0.48979  0.98979  0.50000  1
 F  F4  1  0.01021  0.51021  0.50000  1
 Na  Na1  1  0.25000  0.75000  0.50000  1
