CIF file written using JARVIS-Tools package.
data_GaNO2
_symmetry_space_group_name_H-M  'Imm2'
_cell_length_a       4.63018
_cell_length_b       4.63018
_cell_length_c       4.63018
_cell_angle_alpha    141.068
_cell_angle_beta     90.789
_cell_angle_gamma    102.025

_symmetry_Int_Tables_number  44
_chemical_formula_structural  GaNO2
_chemical_formula_sum  GaNO2
_cell_volume  58.45873837275519
_cell_formula_units_Z  1
loop_
  _symmetry_equiv_pos_site_id
 _symmetry_equiv_pos_as_xyz
 1  'x, y, z'
loop_
 _atom_site_type_symbol
 _atom_site_label
 _atom_site_symmetry_multiplicity
 _atom_site_fract_x
 _atom_site_fract_y
 _atom_site_fract_z
 _atom_site_fract_occupancy
 Ga  Ga1  1  0.06931  0.06931  -0.00000  1
 N  N1  1  0.58961  0.58961  0.00000  1
 O  O1  1  0.63559  0.47054  0.16505  1
 O  O2  1  0.30549  0.47054  0.83495  1
