CIF file written using JARVIS-Tools package.
data_CeNiP
_symmetry_space_group_name_H-M  'P6_3/mmc'
_cell_length_a       3.95816
_cell_length_b       3.95816
_cell_length_c       15.8425
_cell_angle_alpha    90
_cell_angle_beta     90
_cell_angle_gamma    120

_symmetry_Int_Tables_number  194
_chemical_formula_structural  CeNiP
_chemical_formula_sum  Ce4Ni4P4
_cell_volume  214.9522253800116
_cell_formula_units_Z  4
loop_
  _symmetry_equiv_pos_site_id
 _symmetry_equiv_pos_as_xyz
 1  'x, y, z'
loop_
 _atom_site_type_symbol
 _atom_site_label
 _atom_site_symmetry_multiplicity
 _atom_site_fract_x
 _atom_site_fract_y
 _atom_site_fract_z
 _atom_site_fract_occupancy
 Ce  Ce1  1  0.00000  0.00000  0.50000  1
 Ce  Ce2  1  0.00000  0.00000  0.00000  1
 Ce  Ce3  1  0.00000  0.00000  0.25000  1
 Ce  Ce4  1  0.00000  0.00000  0.75000  1
 Ni  Ni1  1  0.33333  0.66667  0.37852  1
 Ni  Ni2  1  0.66667  0.33333  0.62148  1
 Ni  Ni3  1  0.66667  0.33333  0.87852  1
 Ni  Ni4  1  0.33333  0.66667  0.12148  1
 P  P1  1  0.33333  0.66667  0.87304  1
 P  P2  1  0.66667  0.33333  0.12696  1
 P  P3  1  0.66667  0.33333  0.37304  1
 P  P4  1  0.33333  0.66667  0.62696  1
