CIF file written using JARVIS-Tools package.
data_SrGaGe
_symmetry_space_group_name_H-M  'P6_3/mmc'
_cell_length_a       4.3068
_cell_length_b       4.3068
_cell_length_c       18.8241
_cell_angle_alpha    90
_cell_angle_beta     90
_cell_angle_gamma    120

_symmetry_Int_Tables_number  194
_chemical_formula_structural  SrGaGe
_chemical_formula_sum  Sr4Ga4Ge4
_cell_volume  302.3817642290011
_cell_formula_units_Z  4
loop_
  _symmetry_equiv_pos_site_id
 _symmetry_equiv_pos_as_xyz
 1  'x, y, z'
loop_
 _atom_site_type_symbol
 _atom_site_label
 _atom_site_symmetry_multiplicity
 _atom_site_fract_x
 _atom_site_fract_y
 _atom_site_fract_z
 _atom_site_fract_occupancy
 Ga  Ga1  1  0.33333  0.66667  0.35371  1
 Ga  Ga2  1  0.66667  0.33333  0.64629  1
 Ga  Ga3  1  0.66667  0.33333  0.85371  1
 Ga  Ga4  1  0.33333  0.66667  0.14629  1
 Ge  Ge1  1  0.33333  0.66667  0.88922  1
 Ge  Ge2  1  0.66667  0.33333  0.11078  1
 Ge  Ge3  1  0.66667  0.33333  0.38922  1
 Ge  Ge4  1  0.33333  0.66667  0.61078  1
 Sr  Sr1  1  0.00000  0.00000  0.50000  1
 Sr  Sr2  1  0.00000  0.00000  0.00000  1
 Sr  Sr3  1  0.00000  0.00000  0.25000  1
 Sr  Sr4  1  0.00000  0.00000  0.75000  1
