CIF file written using JARVIS-Tools package.
data_CuN2
_symmetry_space_group_name_H-M  'P-1'
_cell_length_a       2.91775
_cell_length_b       2.78686
_cell_length_c       5.28032
_cell_angle_alpha    116.21
_cell_angle_beta     101.422
_cell_angle_gamma    64.2107

_symmetry_Int_Tables_number  2
_chemical_formula_structural  CuN2
_chemical_formula_sum  CuN2
_cell_volume  34.68380993578053
_cell_formula_units_Z  1
loop_
  _symmetry_equiv_pos_site_id
 _symmetry_equiv_pos_as_xyz
 1  'x, y, z'
loop_
 _atom_site_type_symbol
 _atom_site_label
 _atom_site_symmetry_multiplicity
 _atom_site_fract_x
 _atom_site_fract_y
 _atom_site_fract_z
 _atom_site_fract_occupancy
 Cu  Cu1  1  0.83463  0.05865  0.94821  1
 N  N1  1  0.83496  0.67073  0.56973  1
 N  N2  1  0.83434  0.44663  0.32667  1
