CIF file written using JARVIS-Tools package.
data_CaCdPt
_symmetry_space_group_name_H-M  'Pnma'
_cell_length_a       4.27224
_cell_length_b       7.26538
_cell_length_c       8.64789
_cell_angle_alpha    90
_cell_angle_beta     90
_cell_angle_gamma    90

_symmetry_Int_Tables_number  62
_chemical_formula_structural  CaCdPt
_chemical_formula_sum  Ca4Cd4Pt4
_cell_volume  268.4257454926894
_cell_formula_units_Z  4
loop_
  _symmetry_equiv_pos_site_id
 _symmetry_equiv_pos_as_xyz
 1  'x, y, z'
loop_
 _atom_site_type_symbol
 _atom_site_label
 _atom_site_symmetry_multiplicity
 _atom_site_fract_x
 _atom_site_fract_y
 _atom_site_fract_z
 _atom_site_fract_occupancy
 Ca  Ca1  1  0.25000  0.03782  0.32250  1
 Ca  Ca2  1  0.25000  0.53782  0.17750  1
 Ca  Ca3  1  0.75000  0.96218  0.67750  1
 Ca  Ca4  1  0.75000  0.46218  0.82250  1
 Cd  Cd1  1  0.25000  0.14162  0.93656  1
 Cd  Cd2  1  0.25000  0.64162  0.56344  1
 Cd  Cd3  1  0.75000  0.85838  0.06344  1
 Cd  Cd4  1  0.75000  0.35838  0.43656  1
 Pt  Pt1  1  0.25000  0.25299  0.62910  1
 Pt  Pt2  1  0.25000  0.75299  0.87090  1
 Pt  Pt3  1  0.75000  0.74701  0.37090  1
 Pt  Pt4  1  0.75000  0.24701  0.12910  1
