CIF file written using JARVIS-Tools package.
data_GeH2
_symmetry_space_group_name_H-M  'Cm'
_cell_length_a       2.61267
_cell_length_b       3.49009
_cell_length_c       4.37732
_cell_angle_alpha    66.5067
_cell_angle_beta     77.5714
_cell_angle_gamma    90.0015

_symmetry_Int_Tables_number  8
_chemical_formula_structural  GeH2
_chemical_formula_sum  GeH2
_cell_volume  35.58333885461611
_cell_formula_units_Z  1
loop_
  _symmetry_equiv_pos_site_id
 _symmetry_equiv_pos_as_xyz
 1  'x, y, z'
loop_
 _atom_site_type_symbol
 _atom_site_label
 _atom_site_symmetry_multiplicity
 _atom_site_fract_x
 _atom_site_fract_y
 _atom_site_fract_z
 _atom_site_fract_occupancy
 Ge  Ge1  1  0.10281  0.89566  0.04942  1
 H  H1  1  0.95056  0.69462  0.45153  1
 H  H2  1  0.13923  0.43673  -0.03273  1
