CIF file written using JARVIS-Tools package.
data_Sc2CdSe4
_symmetry_space_group_name_H-M  'Fd-3m'
_cell_length_a       8.00202
_cell_length_b       8.00202
_cell_length_c       8.00201
_cell_angle_alpha    60
_cell_angle_beta     60
_cell_angle_gamma    60

_symmetry_Int_Tables_number  227
_chemical_formula_structural  Sc2CdSe4
_chemical_formula_sum  Sc4Cd2Se8
_cell_volume  362.31207222545294
_cell_formula_units_Z  2
loop_
  _symmetry_equiv_pos_site_id
 _symmetry_equiv_pos_as_xyz
 1  'x, y, z'
loop_
 _atom_site_type_symbol
 _atom_site_label
 _atom_site_symmetry_multiplicity
 _atom_site_fract_x
 _atom_site_fract_y
 _atom_site_fract_z
 _atom_site_fract_occupancy
 Cd  Cd1  1  0.25000  0.25000  0.25000  1
 Cd  Cd2  1  0.00000  0.00000  0.00000  1
 Sc  Sc1  1  0.12500  0.62500  0.62500  1
 Sc  Sc2  1  0.62500  0.12500  0.62500  1
 Sc  Sc3  1  0.62500  0.62500  0.12500  1
 Sc  Sc4  1  0.62500  0.62500  0.62500  1
 Se  Se1  1  0.84438  0.38521  0.38521  1
 Se  Se2  1  0.38521  0.84438  0.38521  1
 Se  Se3  1  0.38521  0.38521  0.84438  1
 Se  Se4  1  0.38521  0.38521  0.38521  1
 Se  Se5  1  0.40562  0.86479  0.86479  1
 Se  Se6  1  0.86479  0.40562  0.86479  1
 Se  Se7  1  0.86479  0.86479  0.40562  1
 Se  Se8  1  0.86479  0.86479  0.86479  1
