CIF file written using JARVIS-Tools package.
data_HgI3
_symmetry_space_group_name_H-M  'Cm'
_cell_length_a       7.59099
_cell_length_b       3.54718
_cell_length_c       8.54657
_cell_angle_alpha    78.0521
_cell_angle_beta     75.8219
_cell_angle_gamma    117.841

_symmetry_Int_Tables_number  8
_chemical_formula_structural  HgI3
_chemical_formula_sum  HgI3
_cell_volume  182.904611850555
_cell_formula_units_Z  1
loop_
  _symmetry_equiv_pos_site_id
 _symmetry_equiv_pos_as_xyz
 1  'x, y, z'
loop_
 _atom_site_type_symbol
 _atom_site_label
 _atom_site_symmetry_multiplicity
 _atom_site_fract_x
 _atom_site_fract_y
 _atom_site_fract_z
 _atom_site_fract_occupancy
 Hg  Hg1  1  0.98130  0.05848  0.94339  1
 I  I1  1  0.37416  0.84473  0.15676  1
 I  I2  1  0.56770  0.23191  0.77032  1
 I  I3  1  0.75754  0.60924  0.39549  1
