CIF file written using JARVIS-Tools package.
data_TiGeS3
_symmetry_space_group_name_H-M  'Pnma'
_cell_length_a       3.49117
_cell_length_b       9.02958
_cell_length_c       13.2616
_cell_angle_alpha    90
_cell_angle_beta     90
_cell_angle_gamma    90

_symmetry_Int_Tables_number  62
_chemical_formula_structural  TiGeS3
_chemical_formula_sum  Ti4Ge4S2
_cell_volume  418.0564893424589
_cell_formula_units_Z  4
loop_
  _symmetry_equiv_pos_site_id
 _symmetry_equiv_pos_as_xyz
 1  'x, y, z'
loop_
 _atom_site_type_symbol
 _atom_site_label
 _atom_site_symmetry_multiplicity
 _atom_site_fract_x
 _atom_site_fract_y
 _atom_site_fract_z
 _atom_site_fract_occupancy
 Ge  Ge1  1  0.25000  0.06807  0.83970  1
 Ge  Ge2  1  0.25000  0.56807  0.66030  1
 Ge  Ge3  1  0.75000  0.93193  0.16030  1
 Ge  Ge4  1  0.75000  0.43193  0.33970  1
 S  S1  1  0.25000  0.17805  0.01211  1
 S  S2  1  0.25000  0.51335  0.89080  1
 S  S3  1  0.75000  0.82195  0.98789  1
 S  S4  1  0.75000  0.48665  0.10920  1
 S  S5  1  0.75000  0.98665  0.39080  1
 S  S6  1  0.25000  0.01335  0.60920  1
 S  S7  1  0.75000  0.73560  0.71383  1
 S  S8  1  0.75000  0.32195  0.51211  1
 S  S9  1  0.25000  0.26440  0.28617  1
 S  S10  1  0.75000  0.23560  0.78617  1
 S  S11  1  0.25000  0.67805  0.48789  1
 S  S12  1  0.25000  0.76440  0.21383  1
 Ti  Ti1  1  0.25000  0.15345  0.45429  1
 Ti  Ti2  1  0.25000  0.65345  0.04571  1
 Ti  Ti3  1  0.75000  0.84655  0.54571  1
 Ti  Ti4  1  0.75000  0.34655  0.95429  1
