CIF file written using JARVIS-Tools package.
data_Er7CoI12
_symmetry_space_group_name_H-M  'R-3'
_cell_length_a       9.51163
_cell_length_b       9.51163
_cell_length_c       9.51163
_cell_angle_alpha    106.88
_cell_angle_beta     106.88
_cell_angle_gamma    106.88

_symmetry_Int_Tables_number  148
_chemical_formula_structural  Er7CoI12
_chemical_formula_sum  Er7CoI2
_cell_volume  718.9797508664514
_cell_formula_units_Z  1
loop_
  _symmetry_equiv_pos_site_id
 _symmetry_equiv_pos_as_xyz
 1  'x, y, z'
loop_
 _atom_site_type_symbol
 _atom_site_label
 _atom_site_symmetry_multiplicity
 _atom_site_fract_x
 _atom_site_fract_y
 _atom_site_fract_z
 _atom_site_fract_occupancy
 Co  Co1  1  0.00000  0.00000  0.00000  1
 Er  Er1  1  0.50000  0.50000  0.50000  1
 Er  Er2  1  0.28964  0.09238  0.02340  1
 Er  Er3  1  0.02340  0.28964  0.09238  1
 Er  Er4  1  0.09238  0.02340  0.28964  1
 Er  Er5  1  0.71036  0.90762  0.97660  1
 Er  Er6  1  0.97660  0.71036  0.90762  1
 Er  Er7  1  0.90762  0.97660  0.71036  1
 I  I1  1  0.46980  0.15771  0.39028  1
 I  I2  1  0.07257  0.67582  0.23070  1
 I  I3  1  0.15771  0.39028  0.46980  1
 I  I4  1  0.53020  0.84229  0.60972  1
 I  I5  1  0.39028  0.46980  0.15771  1
 I  I6  1  0.76930  0.92743  0.32418  1
 I  I7  1  0.32418  0.76930  0.92743  1
 I  I8  1  0.92743  0.32418  0.76930  1
 I  I9  1  0.60972  0.53020  0.84229  1
 I  I10  1  0.67582  0.23070  0.07257  1
 I  I11  1  0.84229  0.60972  0.53020  1
 I  I12  1  0.23070  0.07257  0.67582  1
