CIF file written using JARVIS-Tools package.
data_Hg2I
_symmetry_space_group_name_H-M  'P-3m1'
_cell_length_a       7.26932
_cell_length_b       5.80832
_cell_length_c       4.38808
_cell_angle_alpha    90.1413
_cell_angle_beta     107.399
_cell_angle_gamma    142.892

_symmetry_Int_Tables_number  164
_chemical_formula_structural  Hg2I
_chemical_formula_sum  Hg2I
_cell_volume  96.8765907344718
_cell_formula_units_Z  1
loop_
  _symmetry_equiv_pos_site_id
 _symmetry_equiv_pos_as_xyz
 1  'x, y, z'
loop_
 _atom_site_type_symbol
 _atom_site_label
 _atom_site_symmetry_multiplicity
 _atom_site_fract_x
 _atom_site_fract_y
 _atom_site_fract_z
 _atom_site_fract_occupancy
 Hg  Hg1  1  0.88150  0.17617  -0.02066  1
 Hg  Hg2  1  0.21459  0.77799  0.64610  1
 I  I1  1  0.54827  0.47729  0.31286  1
