CIF file written using JARVIS-Tools package.
data_CuSnPd2
_symmetry_space_group_name_H-M  'Pmmm'
_cell_length_a       3.99024
_cell_length_b       7.94892
_cell_length_c       7.99299
_cell_angle_alpha    90
_cell_angle_beta     90
_cell_angle_gamma    90

_symmetry_Int_Tables_number  47
_chemical_formula_structural  CuSnPd2
_chemical_formula_sum  Cu4Sn4Pd8
_cell_volume  253.5222099802094
_cell_formula_units_Z  4
loop_
  _symmetry_equiv_pos_site_id
 _symmetry_equiv_pos_as_xyz
 1  'x, y, z'
loop_
 _atom_site_type_symbol
 _atom_site_label
 _atom_site_symmetry_multiplicity
 _atom_site_fract_x
 _atom_site_fract_y
 _atom_site_fract_z
 _atom_site_fract_occupancy
 Cu  Cu1  1  0.00000  0.00000  0.00000  1
 Cu  Cu2  1  0.00000  0.50000  0.50000  1
 Cu  Cu3  1  0.50000  0.24325  0.50000  1
 Cu  Cu4  1  0.50000  0.75675  0.50000  1
 Pd  Pd1  1  0.00000  0.50000  0.00000  1
 Pd  Pd2  1  0.50000  0.00000  0.74862  1
 Pd  Pd3  1  0.50000  0.00000  0.25138  1
 Pd  Pd4  1  0.50000  0.24802  0.00000  1
 Pd  Pd5  1  0.50000  0.75198  0.00000  1
 Pd  Pd6  1  0.00000  0.00000  0.50000  1
 Pd  Pd7  1  0.50000  0.50000  0.72552  1
 Pd  Pd8  1  0.50000  0.50000  0.27448  1
 Sn  Sn1  1  0.00000  0.25007  0.75183  1
 Sn  Sn2  1  0.00000  0.74993  0.24817  1
 Sn  Sn3  1  0.00000  0.25007  0.24817  1
 Sn  Sn4  1  0.00000  0.74993  0.75183  1
