CIF file written using JARVIS-Tools package.
data_Sm3Ni
_symmetry_space_group_name_H-M  'Pnma'
_cell_length_a       6.36865
_cell_length_b       6.91832
_cell_length_c       9.76329
_cell_angle_alpha    90
_cell_angle_beta     90
_cell_angle_gamma    90

_symmetry_Int_Tables_number  62
_chemical_formula_structural  Sm3Ni
_chemical_formula_sum  Sm2Ni4
_cell_volume  430.1736738512248
_cell_formula_units_Z  4
loop_
  _symmetry_equiv_pos_site_id
 _symmetry_equiv_pos_as_xyz
 1  'x, y, z'
loop_
 _atom_site_type_symbol
 _atom_site_label
 _atom_site_symmetry_multiplicity
 _atom_site_fract_x
 _atom_site_fract_y
 _atom_site_fract_z
 _atom_site_fract_occupancy
 Ni  Ni1  1  0.06604  0.38733  0.75000  1
 Ni  Ni2  1  0.43396  0.88733  0.75000  1
 Ni  Ni3  1  0.93396  0.61267  0.25000  1
 Ni  Ni4  1  0.56604  0.11267  0.25000  1
 Sm  Sm1  1  0.32589  0.17856  0.56554  1
 Sm  Sm2  1  0.17411  0.67856  0.93446  1
 Sm  Sm3  1  0.67411  0.82144  0.06554  1
 Sm  Sm4  1  0.82589  0.32144  0.43446  1
 Sm  Sm5  1  0.67411  0.82144  0.43446  1
 Sm  Sm6  1  0.82589  0.32144  0.06554  1
 Sm  Sm7  1  0.32589  0.17856  0.93446  1
 Sm  Sm8  1  0.17411  0.67856  0.56554  1
 Sm  Sm9  1  0.85578  0.03202  0.75000  1
 Sm  Sm10  1  0.64422  0.53202  0.75000  1
 Sm  Sm11  1  0.14422  0.96798  0.25000  1
 Sm  Sm12  1  0.35578  0.46798  0.25000  1
