CIF file written using JARVIS-Tools package.
data_Sr3Hg
_symmetry_space_group_name_H-M  'Pnma'
_cell_length_a       7.37881
_cell_length_b       8.47235
_cell_length_c       10.8815
_cell_angle_alpha    90
_cell_angle_beta     90
_cell_angle_gamma    90

_symmetry_Int_Tables_number  62
_chemical_formula_structural  Sr3Hg
_chemical_formula_sum  Sr2Hg4
_cell_volume  680.2655863504871
_cell_formula_units_Z  4
loop_
  _symmetry_equiv_pos_site_id
 _symmetry_equiv_pos_as_xyz
 1  'x, y, z'
loop_
 _atom_site_type_symbol
 _atom_site_label
 _atom_site_symmetry_multiplicity
 _atom_site_fract_x
 _atom_site_fract_y
 _atom_site_fract_z
 _atom_site_fract_occupancy
 Hg  Hg1  1  0.05291  0.88136  0.25000  1
 Hg  Hg2  1  0.44709  0.38136  0.25000  1
 Hg  Hg3  1  0.94709  0.11864  0.75000  1
 Hg  Hg4  1  0.55291  0.61864  0.75000  1
 Sr  Sr1  1  0.33767  0.67926  0.06208  1
 Sr  Sr2  1  0.16233  0.17926  0.43792  1
 Sr  Sr3  1  0.66233  0.32074  0.56208  1
 Sr  Sr4  1  0.83767  0.82074  0.93792  1
 Sr  Sr5  1  0.66233  0.32074  0.93792  1
 Sr  Sr6  1  0.83767  0.82074  0.56208  1
 Sr  Sr7  1  0.33767  0.67926  0.43792  1
 Sr  Sr8  1  0.16233  0.17926  0.06208  1
 Sr  Sr9  1  0.86304  0.53097  0.25000  1
 Sr  Sr10  1  0.63696  0.03097  0.25000  1
 Sr  Sr11  1  0.13696  0.46903  0.75000  1
 Sr  Sr12  1  0.36304  0.96903  0.75000  1
