CIF file written using JARVIS-Tools package.
data_LiH2N
_symmetry_space_group_name_H-M  'P2_12_12_1'
_cell_length_a       3.84021
_cell_length_b       5.24326
_cell_length_c       6.76028
_cell_angle_alpha    90
_cell_angle_beta     90
_cell_angle_gamma    90

_symmetry_Int_Tables_number  19
_chemical_formula_structural  LiH2N
_chemical_formula_sum  Li4H8N4
_cell_volume  136.1200531005003
_cell_formula_units_Z  4
loop_
  _symmetry_equiv_pos_site_id
 _symmetry_equiv_pos_as_xyz
 1  'x, y, z'
loop_
 _atom_site_type_symbol
 _atom_site_label
 _atom_site_symmetry_multiplicity
 _atom_site_fract_x
 _atom_site_fract_y
 _atom_site_fract_z
 _atom_site_fract_occupancy
 H  H1  1  0.67409  0.54275  0.76186  1
 H  H2  1  0.17409  -0.04275  0.23814  1
 H  H3  1  -0.17409  0.45725  0.26186  1
 H  H4  1  0.32591  0.04275  0.73814  1
 H  H5  1  0.65659  0.34837  0.57468  1
 H  H6  1  0.15659  0.15163  0.42532  1
 H  H7  1  0.84341  0.65163  0.07468  1
 H  H8  1  0.34341  0.84837  0.92532  1
 Li  Li1  1  0.17997  0.66534  0.58485  1
 Li  Li2  1  0.67997  0.83466  0.41515  1
 Li  Li3  1  0.32003  0.33466  0.08485  1
 Li  Li4  1  0.82003  0.16534  0.91515  1
 N  N1  1  0.18367  0.96204  0.39022  1
 N  N2  1  0.68367  0.53796  0.60978  1
 N  N3  1  0.31633  0.03796  0.89022  1
 N  N4  1  0.81633  0.46204  0.10978  1
