CIF file written using JARVIS-Tools package.
data_AlHO2
_symmetry_space_group_name_H-M  'R3m'
_cell_length_a       4.76159
_cell_length_b       4.76159
_cell_length_c       4.76159
_cell_angle_alpha    35.1337
_cell_angle_beta     35.1337
_cell_angle_gamma    35.1336

_symmetry_Int_Tables_number  160
_chemical_formula_structural  AlHO2
_chemical_formula_sum  AlHO2
_cell_volume  31.931331696017352
_cell_formula_units_Z  1
loop_
  _symmetry_equiv_pos_site_id
 _symmetry_equiv_pos_as_xyz
 1  'x, y, z'
loop_
 _atom_site_type_symbol
 _atom_site_label
 _atom_site_symmetry_multiplicity
 _atom_site_fract_x
 _atom_site_fract_y
 _atom_site_fract_z
 _atom_site_fract_occupancy
 Al  Al1  1  0.00388  0.00388  0.00388  1
 H  H1  1  0.51404  0.51404  0.51404  1
 O  O1  1  0.40321  0.40321  0.40321  1
 O  O2  1  0.59228  0.59228  0.59228  1
