CIF file written using JARVIS-Tools package.
data_Li3MnCoO5
_symmetry_space_group_name_H-M  'P-1'
_cell_length_a       4.92507
_cell_length_b       5.73164
_cell_length_c       6.38512
_cell_angle_alpha    103.849
_cell_angle_beta     97.4083
_cell_angle_gamma    106.601

_symmetry_Int_Tables_number  2
_chemical_formula_structural  Li3MnCoO5
_chemical_formula_sum  Li6Mn2Co2O0
_cell_volume  163.89550305268182
_cell_formula_units_Z  2
loop_
  _symmetry_equiv_pos_site_id
 _symmetry_equiv_pos_as_xyz
 1  'x, y, z'
loop_
 _atom_site_type_symbol
 _atom_site_label
 _atom_site_symmetry_multiplicity
 _atom_site_fract_x
 _atom_site_fract_y
 _atom_site_fract_z
 _atom_site_fract_occupancy
 Co  Co1  1  0.19978  0.89931  0.89891  1
 Co  Co2  1  0.80022  0.10069  0.10109  1
 Li  Li1  1  0.00000  0.50000  0.50000  1
 Li  Li2  1  0.39410  0.79702  0.30312  1
 Li  Li3  1  0.81304  0.59798  0.10698  1
 Li  Li4  1  0.00000  0.00000  0.50000  1
 Li  Li5  1  0.60590  0.20298  0.69688  1
 Li  Li6  1  0.18696  0.40202  0.89302  1
 Mn  Mn1  1  0.59919  0.69923  0.69917  1
 Mn  Mn2  1  0.40081  0.30077  0.30083  1
 O  O1  1  0.89969  0.03152  0.81011  1
 O  O2  1  0.10381  0.42352  0.19698  1
 O  O3  1  0.89619  0.57648  0.80302  1
 O  O4  1  0.68474  0.15245  0.37826  1
 O  O5  1  0.10031  0.96848  0.18989  1
 O  O6  1  0.32459  0.36286  0.59268  1
 O  O7  1  0.49961  0.76779  0.98620  1
 O  O8  1  0.67541  0.63714  0.40732  1
 O  O9  1  0.50039  0.23221  0.01380  1
 O  O10  1  0.31526  0.84755  0.62174  1
