CIF file written using JARVIS-Tools package.
data_SnSe
_symmetry_space_group_name_H-M  'Cmmm'
_cell_length_a       3.04721
_cell_length_b       5.91105
_cell_length_c       12.2656
_cell_angle_alpha    90
_cell_angle_beta     90
_cell_angle_gamma    90

_symmetry_Int_Tables_number  65
_chemical_formula_structural  SnSe
_chemical_formula_sum  Sn4Se4
_cell_volume  220.93103693984477
_cell_formula_units_Z  4
loop_
  _symmetry_equiv_pos_site_id
 _symmetry_equiv_pos_as_xyz
 1  'x, y, z'
loop_
 _atom_site_type_symbol
 _atom_site_label
 _atom_site_symmetry_multiplicity
 _atom_site_fract_x
 _atom_site_fract_y
 _atom_site_fract_z
 _atom_site_fract_occupancy
 Se  Se1  1  -0.00037  0.50000  0.14245  1
 Se  Se2  1  -0.00037  0.50000  0.85755  1
 Se  Se3  1  0.00037  0.00000  0.64245  1
 Se  Se4  1  0.00037  0.00000  0.35755  1
 Sn  Sn1  1  0.99983  0.50000  0.36691  1
 Sn  Sn2  1  0.99983  0.50000  0.63309  1
 Sn  Sn3  1  0.00017  0.00000  0.86691  1
 Sn  Sn4  1  0.00017  0.00000  0.13309  1
