CIF file written using JARVIS-Tools package.
data_Si2WO6
_symmetry_space_group_name_H-M  'C2/c'
_cell_length_a       6.56815
_cell_length_b       6.56815
_cell_length_c       5.14096
_cell_angle_alpha    76.2703
_cell_angle_beta     76.2704
_cell_angle_gamma    81.781

_symmetry_Int_Tables_number  15
_chemical_formula_structural  Si2WO6
_chemical_formula_sum  Si4W2O2
_cell_volume  208.40698943907404
_cell_formula_units_Z  2
loop_
  _symmetry_equiv_pos_site_id
 _symmetry_equiv_pos_as_xyz
 1  'x, y, z'
loop_
 _atom_site_type_symbol
 _atom_site_label
 _atom_site_symmetry_multiplicity
 _atom_site_fract_x
 _atom_site_fract_y
 _atom_site_fract_z
 _atom_site_fract_occupancy
 O  O1  1  0.35362  0.89465  0.32530  1
 O  O2  1  0.64546  0.62575  0.54619  1
 O  O3  1  0.37425  0.35454  0.95381  1
 O  O4  1  0.95726  0.77317  0.66515  1
 O  O5  1  0.62575  0.64546  0.04619  1
 O  O6  1  0.35454  0.37425  0.45381  1
 O  O7  1  0.64638  0.10535  0.67470  1
 O  O8  1  0.10535  0.64638  0.17470  1
 O  O9  1  0.22683  0.04274  0.83485  1
 O  O10  1  0.77317  0.95726  0.16515  1
 O  O11  1  0.04274  0.22683  0.33485  1
 O  O12  1  0.89465  0.35362  0.82530  1
 Si  Si1  1  0.21590  0.40947  0.22410  1
 Si  Si2  1  0.59053  0.78410  0.27590  1
 Si  Si3  1  0.40947  0.21590  0.72410  1
 Si  Si4  1  0.78410  0.59053  0.77590  1
 W  W1  1  0.06997  0.93003  0.25000  1
 W  W2  1  0.93003  0.06997  0.75000  1
