CIF file written using JARVIS-Tools package.
data_Li3MnCoO5
_symmetry_space_group_name_H-M  'Cm'
_cell_length_a       2.8427
_cell_length_b       6.3363
_cell_length_c       9.55846
_cell_angle_alpha    100.588
_cell_angle_beta     90.0021
_cell_angle_gamma    102.968

_symmetry_Int_Tables_number  8
_chemical_formula_structural  Li3MnCoO5
_chemical_formula_sum  Li6Mn2Co2O0
_cell_volume  164.76811287828937
_cell_formula_units_Z  2
loop_
  _symmetry_equiv_pos_site_id
 _symmetry_equiv_pos_as_xyz
 1  'x, y, z'
loop_
 _atom_site_type_symbol
 _atom_site_label
 _atom_site_symmetry_multiplicity
 _atom_site_fract_x
 _atom_site_fract_y
 _atom_site_fract_z
 _atom_site_fract_occupancy
 Co  Co1  1  0.39825  0.79698  0.19912  1
 Co  Co2  1  0.19900  0.39761  0.60569  1
 Li  Li1  1  0.59937  0.19847  0.79324  1
 Li  Li2  1  0.69985  0.39984  0.09130  1
 Li  Li3  1  0.09808  0.19606  0.30405  1
 Li  Li4  1  0.50825  0.01620  0.51367  1
 Li  Li5  1  0.90902  0.81760  0.70157  1
 Li  Li6  1  0.28695  0.57347  0.89106  1
 Mn  Mn1  1  0.00310  0.00646  0.99553  1
 Mn  Mn2  1  0.80168  0.60349  0.40094  1
 O  O1  1  0.05821  0.11611  0.64501  1
 O  O2  1  0.85853  0.71762  0.06424  1
 O  O3  1  0.53861  0.07748  0.14094  1
 O  O4  1  0.34228  0.68439  0.53638  1
 O  O5  1  0.93969  0.87991  0.33611  1
 O  O6  1  0.74754  0.49466  0.73190  1
 O  O7  1  0.13996  0.28009  0.95830  1
 O  O8  1  0.66250  0.32465  0.45947  1
 O  O9  1  0.45126  0.90280  0.86899  1
 O  O10  1  0.25787  0.51612  0.26249  1
