CIF file written using JARVIS-Tools package.
data_ThMn2SiC
_symmetry_space_group_name_H-M  'Cmcm'
_cell_length_a       5.7294
_cell_length_b       5.7294
_cell_length_c       6.75804
_cell_angle_alpha    90
_cell_angle_beta     90
_cell_angle_gamma    139.338

_symmetry_Int_Tables_number  63
_chemical_formula_structural  ThMn2SiC
_chemical_formula_sum  Th2Mn4Si2C2
_cell_volume  144.54961960097623
_cell_formula_units_Z  2
loop_
  _symmetry_equiv_pos_site_id
 _symmetry_equiv_pos_as_xyz
 1  'x, y, z'
loop_
 _atom_site_type_symbol
 _atom_site_label
 _atom_site_symmetry_multiplicity
 _atom_site_fract_x
 _atom_site_fract_y
 _atom_site_fract_z
 _atom_site_fract_occupancy
 C  C1  1  0.00000  0.00000  0.00000  1
 C  C2  1  0.00000  0.00000  0.50000  1
 Mn  Mn1  1  0.83423  0.16577  0.07166  1
 Mn  Mn2  1  0.16577  0.83423  0.92834  1
 Mn  Mn3  1  0.16577  0.83423  0.57166  1
 Mn  Mn4  1  0.83423  0.16577  0.42834  1
 Si  Si1  1  0.27254  0.72746  0.25000  1
 Si  Si2  1  0.72746  0.27254  0.75000  1
 Th  Th1  1  0.55612  0.44388  0.25000  1
 Th  Th2  1  0.44388  0.55612  0.75000  1
