CIF file written using JARVIS-Tools package.
data_Li4MnCo2O7
_symmetry_space_group_name_H-M  'C2/m'
_cell_length_a       9.57616
_cell_length_b       9.57615
_cell_length_c       9.47876
_cell_angle_alpha    65.0815
_cell_angle_beta     65.0815
_cell_angle_gamma    17.0526

_symmetry_Int_Tables_number  12
_chemical_formula_structural  Li4MnCo2O7
_chemical_formula_sum  Li8Mn2Co4O4
_cell_volume  230.61091347979743
_cell_formula_units_Z  2
loop_
  _symmetry_equiv_pos_site_id
 _symmetry_equiv_pos_as_xyz
 1  'x, y, z'
loop_
 _atom_site_type_symbol
 _atom_site_label
 _atom_site_symmetry_multiplicity
 _atom_site_fract_x
 _atom_site_fract_y
 _atom_site_fract_z
 _atom_site_fract_occupancy
 Co  Co1  1  0.28561  0.28561  0.35821  1
 Co  Co2  1  0.57017  0.57017  0.21926  1
 Co  Co3  1  0.42983  0.42983  0.78074  1
 Co  Co4  1  0.71439  0.71439  0.64179  1
 Li  Li1  1  -0.00000  -0.00000  0.50000  1
 Li  Li2  1  0.78928  0.78928  0.84922  1
 Li  Li3  1  0.50000  0.50000  -0.00000  1
 Li  Li4  1  0.37213  0.37213  0.56087  1
 Li  Li5  1  0.62787  0.62787  0.43913  1
 Li  Li6  1  0.93400  0.93400  0.29251  1
 Li  Li7  1  0.21072  0.21072  0.15078  1
 Li  Li8  1  0.06600  0.06600  0.70749  1
 Mn  Mn1  1  0.14371  0.14371  0.92904  1
 Mn  Mn2  1  0.85629  0.85629  0.07096  1
 O  O1  1  0.52959  0.52959  0.62214  1
 O  O2  1  0.81214  0.81214  0.46260  1
 O  O3  1  0.10364  0.10364  0.30811  1
 O  O4  1  0.38609  0.38609  0.17422  1
 O  O5  1  0.89636  0.89636  0.69189  1
 O  O6  1  0.18786  0.18786  0.53740  1
 O  O7  1  0.04405  0.04405  0.10266  1
 O  O8  1  0.75695  0.75695  0.25198  1
 O  O9  1  0.32495  0.32495  0.97094  1
 O  O10  1  0.61391  0.61391  0.82578  1
 O  O11  1  0.95595  0.95595  0.89734  1
 O  O12  1  0.24305  0.24305  0.74802  1
 O  O13  1  0.47041  0.47041  0.37786  1
 O  O14  1  0.67505  0.67505  0.02906  1
