CIF file written using JARVIS-Tools package.
data_Y2Br3
_symmetry_space_group_name_H-M  'C2/m'
_cell_length_a       8.41634
_cell_length_b       8.41634
_cell_length_c       10.6669
_cell_angle_alpha    61.5974
_cell_angle_beta     61.5974
_cell_angle_gamma    26.847

_symmetry_Int_Tables_number  12
_chemical_formula_structural  Y2Br3
_chemical_formula_sum  Y4Br6
_cell_volume  297.6459951241529
_cell_formula_units_Z  2
loop_
  _symmetry_equiv_pos_site_id
 _symmetry_equiv_pos_as_xyz
 1  'x, y, z'
loop_
 _atom_site_type_symbol
 _atom_site_label
 _atom_site_symmetry_multiplicity
 _atom_site_fract_x
 _atom_site_fract_y
 _atom_site_fract_z
 _atom_site_fract_occupancy
 Br  Br1  1  0.84095  0.84095  0.01197  1
 Br  Br2  1  0.15905  0.15905  0.98803  1
 Br  Br3  1  0.72591  0.72591  0.38162  1
 Br  Br4  1  0.27409  0.27409  0.61838  1
 Br  Br5  1  0.45326  0.45326  0.22967  1
 Br  Br6  1  0.54674  0.54674  0.77033  1
 Y  Y1  1  0.91914  0.91914  0.45165  1
 Y  Y2  1  0.08086  0.08086  0.54835  1
 Y  Y3  1  0.63404  0.63404  0.21297  1
 Y  Y4  1  0.36596  0.36596  0.78703  1
