CIF file written using JARVIS-Tools package.
data_Li4MnCo2O7
_symmetry_space_group_name_H-M  'C2/m'
_cell_length_a       7.55571
_cell_length_b       7.55571
_cell_length_c       12.4434
_cell_angle_alpha    62.3404
_cell_angle_beta     62.3404
_cell_angle_gamma    21.6268

_symmetry_Int_Tables_number  12
_chemical_formula_structural  Li4MnCo2O7
_chemical_formula_sum  Li8Mn2Co4O4
_cell_volume  230.7303505933297
_cell_formula_units_Z  2
loop_
  _symmetry_equiv_pos_site_id
 _symmetry_equiv_pos_as_xyz
 1  'x, y, z'
loop_
 _atom_site_type_symbol
 _atom_site_label
 _atom_site_symmetry_multiplicity
 _atom_site_fract_x
 _atom_site_fract_y
 _atom_site_fract_z
 _atom_site_fract_occupancy
 Co  Co1  1  0.21579  0.21579  0.42747  1
 Co  Co2  1  0.93167  0.93167  0.85728  1
 Co  Co3  1  0.06833  0.06833  0.14272  1
 Co  Co4  1  0.78421  0.78421  0.57253  1
 Li  Li1  1  0.50000  0.50000  -0.00000  1
 Li  Li2  1  0.12810  0.12810  0.81368  1
 Li  Li3  1  0.00000  0.00000  0.50000  1
 Li  Li4  1  0.70394  0.70394  0.94104  1
 Li  Li5  1  0.42609  0.42609  0.35379  1
 Li  Li6  1  0.57391  0.57391  0.64621  1
 Li  Li7  1  0.29606  0.29606  0.05896  1
 Li  Li8  1  0.87190  0.87190  0.18632  1
 Mn  Mn1  1  0.35644  0.35644  0.71549  1
 Mn  Mn2  1  0.64356  0.64356  0.28451  1
 O  O1  1  0.47378  0.47378  0.17795  1
 O  O2  1  0.61779  0.61779  0.45351  1
 O  O3  1  0.33247  0.33247  0.87820  1
 O  O4  1  0.04424  0.04424  0.31804  1
 O  O5  1  0.10644  0.10644  0.97854  1
 O  O6  1  0.80929  0.80929  0.40684  1
 O  O7  1  0.52622  0.52622  0.82205  1
 O  O8  1  0.38221  0.38221  0.54649  1
 O  O9  1  0.24157  0.24157  0.25834  1
 O  O10  1  0.95576  0.95576  0.68196  1
 O  O11  1  0.89356  0.89356  0.02146  1
 O  O12  1  0.75843  0.75843  0.74166  1
 O  O13  1  0.66753  0.66753  0.12180  1
 O  O14  1  0.19071  0.19071  0.59316  1
