CIF file written using JARVIS-Tools package.
data_K2CeCu2S4
_symmetry_space_group_name_H-M  'C2/m'
_cell_length_a       7.48884
_cell_length_b       7.48885
_cell_length_c       7.49594
_cell_angle_alpha    70.7654
_cell_angle_beta     70.7654
_cell_angle_gamma    30.6981

_symmetry_Int_Tables_number  12
_chemical_formula_structural  K2CeCu2S4
_chemical_formula_sum  K2CeCu2S4
_cell_volume  201.70443108724868
_cell_formula_units_Z  1
loop_
  _symmetry_equiv_pos_site_id
 _symmetry_equiv_pos_as_xyz
 1  'x, y, z'
loop_
 _atom_site_type_symbol
 _atom_site_label
 _atom_site_symmetry_multiplicity
 _atom_site_fract_x
 _atom_site_fract_y
 _atom_site_fract_z
 _atom_site_fract_occupancy
 Ce  Ce1  1  0.00000  0.00000  0.00000  1
 Cu  Cu1  1  0.68019  0.68019  0.01290  1
 Cu  Cu2  1  0.31981  0.31981  0.98710  1
 K  K1  1  0.86423  0.86423  0.56036  1
 K  K2  1  0.13577  0.13577  0.43964  1
 S  S1  1  0.79810  0.79810  0.17736  1
 S  S2  1  0.20190  0.20190  0.82264  1
 S  S3  1  0.52162  0.52162  0.23953  1
 S  S4  1  0.47838  0.47838  0.76047  1
