CIF file written using JARVIS-Tools package.
data_Li7Mn4CoO12
_symmetry_space_group_name_H-M  'P1'
_cell_length_a       5.00852
_cell_length_b       5.68126
_cell_length_c       7.51266
_cell_angle_alpha    100.806
_cell_angle_beta     108.756
_cell_angle_gamma    90.2178

_symmetry_Int_Tables_number  1
_chemical_formula_structural  Li7Mn4CoO12
_chemical_formula_sum  Li7Mn4CoO2
_cell_volume  198.3569433196958
_cell_formula_units_Z  1
loop_
  _symmetry_equiv_pos_site_id
 _symmetry_equiv_pos_as_xyz
 1  'x, y, z'
loop_
 _atom_site_type_symbol
 _atom_site_label
 _atom_site_symmetry_multiplicity
 _atom_site_fract_x
 _atom_site_fract_y
 _atom_site_fract_z
 _atom_site_fract_occupancy
 Co  Co1  1  0.00251  0.33246  0.33617  1
 Li  Li1  1  -0.00024  0.16798  0.66432  1
 Li  Li2  1  0.49262  0.40163  0.66358  1
 Li  Li3  1  0.50017  0.93042  0.66751  1
 Li  Li4  1  0.48965  0.24897  0.99185  1
 Li  Li5  1  0.49345  0.74894  0.99781  1
 Li  Li6  1  0.50898  0.58076  0.33563  1
 Li  Li7  1  0.51632  0.09127  0.34539  1
 Mn  Mn1  1  0.99948  0.00214  -0.00402  1
 Mn  Mn2  1  0.99563  0.66432  0.66601  1
 Mn  Mn3  1  -0.00197  0.49574  0.99418  1
 Mn  Mn4  1  0.00436  0.83814  0.34133  1
 O  O1  1  0.77362  0.38934  0.50209  1
 O  O2  1  0.78141  0.04164  0.17454  1
 O  O3  1  0.77088  0.86396  0.49784  1
 O  O4  1  0.78208  0.54625  0.17266  1
 O  O5  1  0.23242  0.11618  0.48316  1
 O  O6  1  0.22917  0.47005  0.83522  1
 O  O7  1  0.22092  0.78818  0.15993  1
 O  O8  1  0.22190  0.28983  0.15724  1
 O  O9  1  0.22741  0.94689  0.83548  1
 O  O10  1  0.76538  0.21135  0.84931  1
 O  O11  1  0.22352  0.62405  0.49571  1
 O  O12  1  0.77034  0.70952  0.83707  1
