CIF file written using JARVIS-Tools package.
data_Li2Br
_symmetry_space_group_name_H-M  'Pmmm'
_cell_length_a       3.65934
_cell_length_b       3.72012
_cell_length_c       6.27565
_cell_angle_alpha    90
_cell_angle_beta     90
_cell_angle_gamma    90

_symmetry_Int_Tables_number  47
_chemical_formula_structural  Li2Br
_chemical_formula_sum  Li2Br
_cell_volume  85.43172871312225
_cell_formula_units_Z  1
loop_
  _symmetry_equiv_pos_site_id
 _symmetry_equiv_pos_as_xyz
 1  'x, y, z'
loop_
 _atom_site_type_symbol
 _atom_site_label
 _atom_site_symmetry_multiplicity
 _atom_site_fract_x
 _atom_site_fract_y
 _atom_site_fract_z
 _atom_site_fract_occupancy
 Br  Br1  1  0.46664  0.00000  0.00000  1
 Li  Li1  1  -0.03332  0.00000  0.73328  1
 Li  Li2  1  -0.03332  0.00000  0.26672  1
