CIF file written using JARVIS-Tools package.
data_ZrZn2Ge
_symmetry_space_group_name_H-M  'I4/mmm'
_cell_length_a       9.089
_cell_length_b       9.08899
_cell_length_c       9.089
_cell_angle_alpha    154.714
_cell_angle_beta     154.714
_cell_angle_gamma    36.0632

_symmetry_Int_Tables_number  139
_chemical_formula_structural  ZrZn2Ge
_chemical_formula_sum  Zr2Zn4Ge2
_cell_volume  136.81808113628605
_cell_formula_units_Z  2
loop_
  _symmetry_equiv_pos_site_id
 _symmetry_equiv_pos_as_xyz
 1  'x, y, z'
loop_
 _atom_site_type_symbol
 _atom_site_label
 _atom_site_symmetry_multiplicity
 _atom_site_fract_x
 _atom_site_fract_y
 _atom_site_fract_z
 _atom_site_fract_occupancy
 Ge  Ge1  1  0.75000  0.25000  0.50000  1
 Ge  Ge2  1  0.25000  0.75000  0.50000  1
 Zn  Zn1  1  0.39801  0.39801  0.00000  1
 Zn  Zn2  1  0.60199  0.60199  -0.00000  1
 Zn  Zn3  1  0.50000  -0.00000  0.50000  1
 Zn  Zn4  1  0.00000  0.50000  0.50000  1
 Zr  Zr1  1  0.12612  0.12612  -0.00000  1
 Zr  Zr2  1  0.87388  0.87388  0.00000  1
