CIF file written using JARVIS-Tools package.
data_LiBr2
_symmetry_space_group_name_H-M  'C2'
_cell_length_a       4.27979
_cell_length_b       5.74693
_cell_length_c       4.73275
_cell_angle_alpha    133.011
_cell_angle_beta     79.0539
_cell_angle_gamma    111.036

_symmetry_Int_Tables_number  5
_chemical_formula_structural  LiBr2
_chemical_formula_sum  LiBr2
_cell_volume  79.1868085392715
_cell_formula_units_Z  1
loop_
  _symmetry_equiv_pos_site_id
 _symmetry_equiv_pos_as_xyz
 1  'x, y, z'
loop_
 _atom_site_type_symbol
 _atom_site_label
 _atom_site_symmetry_multiplicity
 _atom_site_fract_x
 _atom_site_fract_y
 _atom_site_fract_z
 _atom_site_fract_occupancy
 Br  Br1  1  0.13293  0.88544  0.38124  1
 Br  Br2  1  0.61817  0.40042  0.39633  1
 Li  Li1  1  -0.01212  0.03161  0.02708  1
