CIF file written using JARVIS-Tools package.
data_LiBr
_symmetry_space_group_name_H-M  'Fm-3m'
_cell_length_a       3.86578
_cell_length_b       3.86578
_cell_length_c       5.47466
_cell_angle_alpha    90
_cell_angle_beta     90
_cell_angle_gamma    90

_symmetry_Int_Tables_number  225
_chemical_formula_structural  LiBr
_chemical_formula_sum  Li2Br2
_cell_volume  81.81476260597388
_cell_formula_units_Z  2
loop_
  _symmetry_equiv_pos_site_id
 _symmetry_equiv_pos_as_xyz
 1  'x, y, z'
loop_
 _atom_site_type_symbol
 _atom_site_label
 _atom_site_symmetry_multiplicity
 _atom_site_fract_x
 _atom_site_fract_y
 _atom_site_fract_z
 _atom_site_fract_occupancy
 Br  Br1  1  0.00000  0.00000  0.75003  1
 Br  Br2  1  0.50000  0.50000  0.24997  1
 Li  Li1  1  0.00000  0.00000  0.24990  1
 Li  Li2  1  0.50000  0.50000  0.75010  1
