CIF file written using JARVIS-Tools package.
data_LiCrP2S7
_symmetry_space_group_name_H-M  'C2'
_cell_length_a       6.44545
_cell_length_b       6.44545
_cell_length_c       6.26128
_cell_angle_alpha    81.5715
_cell_angle_beta     81.5716
_cell_angle_gamma    96.0273

_symmetry_Int_Tables_number  5
_chemical_formula_structural  LiCrP2S7
_chemical_formula_sum  LiCrP2S7
_cell_volume  252.3934667423291
_cell_formula_units_Z  1
loop_
  _symmetry_equiv_pos_site_id
 _symmetry_equiv_pos_as_xyz
 1  'x, y, z'
loop_
 _atom_site_type_symbol
 _atom_site_label
 _atom_site_symmetry_multiplicity
 _atom_site_fract_x
 _atom_site_fract_y
 _atom_site_fract_z
 _atom_site_fract_occupancy
 Cr  Cr1  1  0.51639  0.48361  -0.00000  1
 Li  Li1  1  0.75028  0.24972  0.50000  1
 P  P1  1  0.96504  0.62799  0.07564  1
 P  P2  1  0.37201  0.03496  0.92436  1
 S  S1  1  0.87824  0.50693  0.81311  1
 S  S2  1  0.51627  0.82288  0.76568  1
 S  S3  1  0.68438  0.60315  0.28580  1
 S  S4  1  0.03462  0.96538  -0.00000  1
 S  S5  1  0.39685  0.31562  0.71420  1
 S  S6  1  0.17712  0.48373  0.23432  1
 S  S7  1  0.49307  0.12176  0.18689  1
