CIF file written using JARVIS-Tools package.
data_Li2Br
_symmetry_space_group_name_H-M  'C2/m'
_cell_length_a       3.6855
_cell_length_b       3.68507
_cell_length_c       5.97969
_cell_angle_alpha    90.8819
_cell_angle_beta     90.8856
_cell_angle_gamma    60.0592

_symmetry_Int_Tables_number  12
_chemical_formula_structural  Li2Br
_chemical_formula_sum  Li2Br
_cell_volume  70.36260626881926
_cell_formula_units_Z  1
loop_
  _symmetry_equiv_pos_site_id
 _symmetry_equiv_pos_as_xyz
 1  'x, y, z'
loop_
 _atom_site_type_symbol
 _atom_site_label
 _atom_site_symmetry_multiplicity
 _atom_site_fract_x
 _atom_site_fract_y
 _atom_site_fract_z
 _atom_site_fract_occupancy
 Br  Br1  1  0.13035  0.89087  0.05000  1
 Li  Li1  1  0.80008  0.56062  0.31956  1
 Li  Li2  1  0.46062  0.22113  0.78046  1
