CIF file written using JARVIS-Tools package.
data_La3MnO7
_symmetry_space_group_name_H-M  'P2_1'
_cell_length_a       5.31107
_cell_length_b       5.52622
_cell_length_c       10.5464
_cell_angle_alpha    74.3777
_cell_angle_beta     90
_cell_angle_gamma    90

_symmetry_Int_Tables_number  4
_chemical_formula_structural  La3MnO7
_chemical_formula_sum  La6Mn2O4
_cell_volume  298.1034881698007
_cell_formula_units_Z  2
loop_
  _symmetry_equiv_pos_site_id
 _symmetry_equiv_pos_as_xyz
 1  'x, y, z'
loop_
 _atom_site_type_symbol
 _atom_site_label
 _atom_site_symmetry_multiplicity
 _atom_site_fract_x
 _atom_site_fract_y
 _atom_site_fract_z
 _atom_site_fract_occupancy
 La  La1  1  0.23914  0.40357  0.14020  1
 La  La2  1  0.24543  0.06354  0.85509  1
 La  La3  1  0.23451  0.24162  0.50028  1
 La  La4  1  0.73914  0.59643  0.85980  1
 La  La5  1  0.74543  0.93646  0.14491  1
 La  La6  1  0.73451  0.75838  0.49972  1
 Mn  Mn1  1  0.23700  0.64871  0.67607  1
 Mn  Mn2  1  0.73700  0.35129  0.32393  1
 O  O1  1  0.98495  0.58129  0.29087  1
 O  O2  1  0.99727  0.41046  0.70817  1
 O  O3  1  0.73936  0.40640  0.09949  1
 O  O4  1  0.97728  0.09941  0.33180  1
 O  O5  1  0.23553  0.69150  0.50486  1
 O  O6  1  -0.00016  0.89609  0.67346  1
 O  O7  1  0.49984  0.10391  0.32654  1
 O  O8  1  0.49727  0.58954  0.29183  1
 O  O9  1  0.47728  0.90059  0.66820  1
 O  O10  1  0.23936  0.59360  0.90051  1
 O  O11  1  0.48495  0.41871  0.70913  1
 O  O12  1  0.73553  0.30850  0.49514  1
 O  O13  1  0.21965  0.02456  0.07587  1
 O  O14  1  0.71965  0.97544  0.92413  1
