CIF file written using JARVIS-Tools package.
data_LiBr
_symmetry_space_group_name_H-M  'Cm'
_cell_length_a       4.04621
_cell_length_b       4.07903
_cell_length_c       6.92676
_cell_angle_alpha    102.654
_cell_angle_beta     77.8591
_cell_angle_gamma    117.385

_symmetry_Int_Tables_number  8
_chemical_formula_structural  LiBr
_chemical_formula_sum  Li2Br2
_cell_volume  98.25130527333725
_cell_formula_units_Z  2
loop_
  _symmetry_equiv_pos_site_id
 _symmetry_equiv_pos_as_xyz
 1  'x, y, z'
loop_
 _atom_site_type_symbol
 _atom_site_label
 _atom_site_symmetry_multiplicity
 _atom_site_fract_x
 _atom_site_fract_y
 _atom_site_fract_z
 _atom_site_fract_occupancy
 Br  Br1  1  0.55368  0.38389  0.04495  1
 Br  Br2  1  0.05340  0.88332  0.54494  1
 Li  Li1  1  0.92437  0.00647  0.91961  1
 Li  Li2  1  0.42403  0.50586  0.41965  1
