CIF file written using JARVIS-Tools package.
data_Re2Cl5O4
_symmetry_space_group_name_H-M  'P1'
_cell_length_a       5.54629
_cell_length_b       5.96208
_cell_length_c       8.70595
_cell_angle_alpha    104.82
_cell_angle_beta     118.025
_cell_angle_gamma    94.2332

_symmetry_Int_Tables_number  1
_chemical_formula_structural  Re2Cl5O4
_chemical_formula_sum  Re2Cl5O4
_cell_volume  239.24071736941514
_cell_formula_units_Z  1
loop_
  _symmetry_equiv_pos_site_id
 _symmetry_equiv_pos_as_xyz
 1  'x, y, z'
loop_
 _atom_site_type_symbol
 _atom_site_label
 _atom_site_symmetry_multiplicity
 _atom_site_fract_x
 _atom_site_fract_y
 _atom_site_fract_z
 _atom_site_fract_occupancy
 Cl  Cl1  1  0.24938  -0.03383  0.27238  1
 Cl  Cl2  1  0.51904  0.10985  0.79943  1
 Cl  Cl3  1  0.59752  0.72563  0.00696  1
 Cl  Cl4  1  0.17719  0.36261  0.07193  1
 Cl  Cl5  1  -0.09626  0.29699  0.61941  1
 O  O1  1  0.83316  0.71115  0.43332  1
 O  O2  1  0.32305  0.54343  0.51917  1
 O  O3  1  0.80605  0.25602  0.21406  1
 O  O4  1  -0.01966  0.82542  0.84763  1
 Re  Re1  1  0.96973  0.46141  0.43785  1
 Re  Re2  1  0.90369  -0.00219  -0.00125  1
