CIF file written using JARVIS-Tools package.
data_Yb4Ni
_symmetry_space_group_name_H-M  'Fd-3m'
_cell_length_a       7.72237
_cell_length_b       7.72237
_cell_length_c       7.72237
_cell_angle_alpha    60
_cell_angle_beta     60
_cell_angle_gamma    60

_symmetry_Int_Tables_number  227
_chemical_formula_structural  Yb4Ni
_chemical_formula_sum  Yb8Ni2
_cell_volume  325.63889639350776
_cell_formula_units_Z  2
loop_
  _symmetry_equiv_pos_site_id
 _symmetry_equiv_pos_as_xyz
 1  'x, y, z'
loop_
 _atom_site_type_symbol
 _atom_site_label
 _atom_site_symmetry_multiplicity
 _atom_site_fract_x
 _atom_site_fract_y
 _atom_site_fract_z
 _atom_site_fract_occupancy
 Ni  Ni1  1  0.00000  0.00000  0.00000  1
 Ni  Ni2  1  0.25000  0.25000  0.25000  1
 Yb  Yb1  1  0.38017  0.38017  0.38017  1
 Yb  Yb2  1  0.38017  0.38017  0.85948  1
 Yb  Yb3  1  0.38017  0.85948  0.38017  1
 Yb  Yb4  1  0.86983  0.86983  0.39052  1
 Yb  Yb5  1  0.86983  0.86983  0.86983  1
 Yb  Yb6  1  0.85948  0.38017  0.38017  1
 Yb  Yb7  1  0.86983  0.39052  0.86983  1
 Yb  Yb8  1  0.39052  0.86983  0.86983  1
