CIF file written using JARVIS-Tools package.
data_NaBH4
_symmetry_space_group_name_H-M  'Pnma'
_cell_length_a       4.24291
_cell_length_b       6.97413
_cell_length_c       7.3365
_cell_angle_alpha    90
_cell_angle_beta     90
_cell_angle_gamma    90

_symmetry_Int_Tables_number  62
_chemical_formula_structural  NaBH4
_chemical_formula_sum  Na4B4H6
_cell_volume  217.09141998307135
_cell_formula_units_Z  4
loop_
  _symmetry_equiv_pos_site_id
 _symmetry_equiv_pos_as_xyz
 1  'x, y, z'
loop_
 _atom_site_type_symbol
 _atom_site_label
 _atom_site_symmetry_multiplicity
 _atom_site_fract_x
 _atom_site_fract_y
 _atom_site_fract_z
 _atom_site_fract_occupancy
 B  B1  1  0.25000  0.94202  0.76686  1
 B  B2  1  0.25000  0.55798  0.26686  1
 B  B3  1  0.75000  0.05798  0.23314  1
 B  B4  1  0.75000  0.44202  0.73314  1
 H  H1  1  0.51375  0.53176  0.69143  1
 H  H2  1  0.25000  0.78659  0.84248  1
 H  H3  1  0.25000  0.71341  0.34248  1
 H  H4  1  0.75000  0.21341  0.15752  1
 H  H5  1  0.48625  0.46824  0.30857  1
 H  H6  1  0.75000  0.41638  0.89936  1
 H  H7  1  0.75000  0.08362  0.39936  1
 H  H8  1  0.75000  0.28659  0.65752  1
 H  H9  1  0.25000  0.91638  0.60064  1
 H  H10  1  0.01375  0.03176  0.80857  1
 H  H11  1  0.48625  0.03176  0.80857  1
 H  H12  1  0.25000  0.58362  0.10064  1
 H  H13  1  0.98625  -0.03176  0.19143  1
 H  H14  1  0.98625  0.53176  0.69143  1
 H  H15  1  0.51375  -0.03176  0.19143  1
 H  H16  1  0.01375  0.46824  0.30857  1
 Na  Na1  1  0.75000  0.75105  0.97981  1
 Na  Na2  1  0.75000  0.74895  0.47981  1
 Na  Na3  1  0.25000  0.24895  0.02019  1
 Na  Na4  1  0.25000  0.25105  0.52019  1
