CIF file written using JARVIS-Tools package.
data_Zr5Sn3As
_symmetry_space_group_name_H-M  'P6_3/mcm'
_cell_length_a       8.67695
_cell_length_b       8.67695
_cell_length_c       5.96641
_cell_angle_alpha    90
_cell_angle_beta     90
_cell_angle_gamma    120

_symmetry_Int_Tables_number  193
_chemical_formula_structural  Zr5Sn3As
_chemical_formula_sum  Zr0Sn6As2
_cell_volume  389.0252068776221
_cell_formula_units_Z  2
loop_
  _symmetry_equiv_pos_site_id
 _symmetry_equiv_pos_as_xyz
 1  'x, y, z'
loop_
 _atom_site_type_symbol
 _atom_site_label
 _atom_site_symmetry_multiplicity
 _atom_site_fract_x
 _atom_site_fract_y
 _atom_site_fract_z
 _atom_site_fract_occupancy
 As  As1  1  0.00000  0.00000  0.50000  1
 As  As2  1  0.00000  0.00000  0.00000  1
 Sn  Sn1  1  -0.00000  0.39482  0.25000  1
 Sn  Sn2  1  0.39482  -0.00000  0.25000  1
 Sn  Sn3  1  0.60518  0.60518  0.25000  1
 Sn  Sn4  1  0.00000  0.60518  0.75000  1
 Sn  Sn5  1  0.60518  0.00000  0.75000  1
 Sn  Sn6  1  0.39482  0.39482  0.75000  1
 Zr  Zr1  1  0.73806  0.73806  0.75000  1
 Zr  Zr2  1  0.66667  0.33333  0.00000  1
 Zr  Zr3  1  0.66667  0.33333  0.50000  1
 Zr  Zr4  1  0.73806  0.00000  0.25000  1
 Zr  Zr5  1  0.26194  -0.00000  0.75000  1
 Zr  Zr6  1  -0.00000  0.26194  0.75000  1
 Zr  Zr7  1  0.26194  0.26194  0.25000  1
 Zr  Zr8  1  0.00000  0.73806  0.25000  1
 Zr  Zr9  1  0.33333  0.66667  0.50000  1
 Zr  Zr10  1  0.33333  0.66667  0.00000  1
