CIF file written using JARVIS-Tools package.
data_Er2CdCu2
_symmetry_space_group_name_H-M  'P4/mbm'
_cell_length_a       7.45704
_cell_length_b       7.45704
_cell_length_c       3.64347
_cell_angle_alpha    90
_cell_angle_beta     90
_cell_angle_gamma    90

_symmetry_Int_Tables_number  127
_chemical_formula_structural  Er2CdCu2
_chemical_formula_sum  Er4Cd2Cu4
_cell_volume  202.60395040711688
_cell_formula_units_Z  2
loop_
  _symmetry_equiv_pos_site_id
 _symmetry_equiv_pos_as_xyz
 1  'x, y, z'
loop_
 _atom_site_type_symbol
 _atom_site_label
 _atom_site_symmetry_multiplicity
 _atom_site_fract_x
 _atom_site_fract_y
 _atom_site_fract_z
 _atom_site_fract_occupancy
 Cd  Cd1  1  0.00000  0.00000  0.00000  1
 Cd  Cd2  1  0.50000  0.50000  0.00000  1
 Cu  Cu1  1  0.12099  0.62099  0.00000  1
 Cu  Cu2  1  0.87901  0.37901  0.00000  1
 Cu  Cu3  1  0.62099  0.87901  0.00000  1
 Cu  Cu4  1  0.37901  0.12099  0.00000  1
 Er  Er1  1  0.67327  0.17327  0.50000  1
 Er  Er2  1  0.32673  0.82673  0.50000  1
 Er  Er3  1  0.17327  0.32673  0.50000  1
 Er  Er4  1  0.82673  0.67327  0.50000  1
