CIF file written using JARVIS-Tools package.
data_AlPO4
_symmetry_space_group_name_H-M  'I-4'
_cell_length_a       5.08051
_cell_length_b       5.08051
_cell_length_c       5.08051
_cell_angle_alpha    122.105
_cell_angle_beta     122.105
_cell_angle_gamma    86.3916

_symmetry_Int_Tables_number  82
_chemical_formula_structural  AlPO4
_chemical_formula_sum  AlPO4
_cell_volume  89.58369246782785
_cell_formula_units_Z  1
loop_
  _symmetry_equiv_pos_site_id
 _symmetry_equiv_pos_as_xyz
 1  'x, y, z'
loop_
 _atom_site_type_symbol
 _atom_site_label
 _atom_site_symmetry_multiplicity
 _atom_site_fract_x
 _atom_site_fract_y
 _atom_site_fract_z
 _atom_site_fract_occupancy
 Al  Al1  1  0.00000  0.00000  0.00000  1
 O  O1  1  -0.01470  0.59701  0.84683  1
 O  O2  1  0.86153  0.01470  0.61170  1
 O  O3  1  0.75018  0.13847  0.15317  1
 O  O4  1  0.40299  0.24983  0.38830  1
 P  P1  1  0.75000  0.25000  0.50000  1
