CIF file written using JARVIS-Tools package.
data_YMnAl
_symmetry_space_group_name_H-M  'Imma'
_cell_length_a       5.2811
_cell_length_b       5.2811
_cell_length_c       5.2811
_cell_angle_alpha    120.95
_cell_angle_beta     116.821
_cell_angle_gamma    91.9769

_symmetry_Int_Tables_number  74
_chemical_formula_structural  YMnAl
_chemical_formula_sum  Y2Mn2Al2
_cell_volume  105.6709606748064
_cell_formula_units_Z  2
loop_
  _symmetry_equiv_pos_site_id
 _symmetry_equiv_pos_as_xyz
 1  'x, y, z'
loop_
 _atom_site_type_symbol
 _atom_site_label
 _atom_site_symmetry_multiplicity
 _atom_site_fract_x
 _atom_site_fract_y
 _atom_site_fract_z
 _atom_site_fract_occupancy
 Al  Al1  1  0.00000  0.50000  0.50000  1
 Al  Al2  1  0.50000  0.50000  -0.00000  1
 Mn  Mn1  1  0.50000  0.00000  -0.00000  1
 Mn  Mn2  1  0.50000  0.50000  0.50000  1
 Y  Y1  1  0.13655  0.88655  0.25000  1
 Y  Y2  1  0.86345  0.11345  0.75000  1
