CIF file written using JARVIS-Tools package.
data_Ti2CrSe4
_symmetry_space_group_name_H-M  'C2/m'
_cell_length_a       6.96831
_cell_length_b       6.96831
_cell_length_c       6.30987
_cell_angle_alpha    64.028
_cell_angle_beta     64.028
_cell_angle_gamma    29.7995

_symmetry_Int_Tables_number  12
_chemical_formula_structural  Ti2CrSe4
_chemical_formula_sum  Ti2CrSe4
_cell_volume  135.73349077665435
_cell_formula_units_Z  1
loop_
  _symmetry_equiv_pos_site_id
 _symmetry_equiv_pos_as_xyz
 1  'x, y, z'
loop_
 _atom_site_type_symbol
 _atom_site_label
 _atom_site_symmetry_multiplicity
 _atom_site_fract_x
 _atom_site_fract_y
 _atom_site_fract_z
 _atom_site_fract_occupancy
 Cr  Cr1  1  0.00000  0.00000  0.00000  1
 Se  Se1  1  0.88657  0.88657  0.45110  1
 Se  Se2  1  0.11343  0.11343  0.54890  1
 Se  Se3  1  0.62844  0.62844  0.03695  1
 Se  Se4  1  0.37156  0.37156  0.96305  1
 Ti  Ti1  1  0.74709  0.74709  0.28242  1
 Ti  Ti2  1  0.25291  0.25291  0.71758  1
