CIF file written using JARVIS-Tools package.
data_Nb3B2Ru5
_symmetry_space_group_name_H-M  'P4/mbm'
_cell_length_a       9.48339
_cell_length_b       9.48339
_cell_length_c       3.01306
_cell_angle_alpha    90
_cell_angle_beta     90
_cell_angle_gamma    90

_symmetry_Int_Tables_number  127
_chemical_formula_structural  Nb3B2Ru5
_chemical_formula_sum  Nb6B4Ru0
_cell_volume  270.97841761957534
_cell_formula_units_Z  2
loop_
  _symmetry_equiv_pos_site_id
 _symmetry_equiv_pos_as_xyz
 1  'x, y, z'
loop_
 _atom_site_type_symbol
 _atom_site_label
 _atom_site_symmetry_multiplicity
 _atom_site_fract_x
 _atom_site_fract_y
 _atom_site_fract_z
 _atom_site_fract_occupancy
 B  B1  1  0.37880  0.12120  0.00000  1
 B  B2  1  0.62120  0.87880  0.00000  1
 B  B3  1  0.87880  0.37880  0.00000  1
 B  B4  1  0.12120  0.62120  0.00000  1
 Nb  Nb1  1  0.00000  0.00000  0.00000  1
 Nb  Nb2  1  0.82332  0.67668  0.00000  1
 Nb  Nb3  1  0.67668  0.17668  0.00000  1
 Nb  Nb4  1  0.32332  0.82332  0.00000  1
 Nb  Nb5  1  0.17668  0.32332  0.00000  1
 Nb  Nb6  1  0.50000  0.50000  0.00000  1
 Ru  Ru1  1  0.78087  0.92902  0.50000  1
 Ru  Ru2  1  0.50000  0.00000  0.50000  1
 Ru  Ru3  1  0.57098  0.71913  0.50000  1
 Ru  Ru4  1  0.42902  0.28087  0.50000  1
 Ru  Ru5  1  0.07098  0.78087  0.50000  1
 Ru  Ru6  1  0.92902  0.21913  0.50000  1
 Ru  Ru7  1  0.28087  0.57098  0.50000  1
 Ru  Ru8  1  0.71913  0.42902  0.50000  1
 Ru  Ru9  1  0.21913  0.07098  0.50000  1
 Ru  Ru10  1  0.00000  0.50000  0.50000  1
