CIF file written using JARVIS-Tools package.
data_Rb2AlO2
_symmetry_space_group_name_H-M  'I4/mmm'
_cell_length_a       7.49551
_cell_length_b       7.49551
_cell_length_c       7.49551
_cell_angle_alpha    148.268
_cell_angle_beta     148.268
_cell_angle_gamma    45.49

_symmetry_Int_Tables_number  139
_chemical_formula_structural  Rb2AlO2
_chemical_formula_sum  Rb2AlO2
_cell_volume  116.10903208186747
_cell_formula_units_Z  1
loop_
  _symmetry_equiv_pos_site_id
 _symmetry_equiv_pos_as_xyz
 1  'x, y, z'
loop_
 _atom_site_type_symbol
 _atom_site_label
 _atom_site_symmetry_multiplicity
 _atom_site_fract_x
 _atom_site_fract_y
 _atom_site_fract_z
 _atom_site_fract_occupancy
 Al  Al1  1  0.00000  0.00000  0.00000  1
 O  O1  1  0.87700  0.87700  -0.00000  1
 O  O2  1  0.12300  0.12300  0.00000  1
 Rb  Rb1  1  0.33353  0.33353  0.00000  1
 Rb  Rb2  1  0.66647  0.66647  0.00000  1
