CIF file written using JARVIS-Tools package.
data_Y2US3O2
_symmetry_space_group_name_H-M  'I4mm'
_cell_length_a       10.8285
_cell_length_b       10.8285
_cell_length_c       10.8285
_cell_angle_alpha    159.762
_cell_angle_beta     159.762
_cell_angle_gamma    28.7735

_symmetry_Int_Tables_number  107
_chemical_formula_structural  Y2US3O2
_chemical_formula_sum  Y2US3O2
_cell_volume  151.85636158537224
_cell_formula_units_Z  1
loop_
  _symmetry_equiv_pos_site_id
 _symmetry_equiv_pos_as_xyz
 1  'x, y, z'
loop_
 _atom_site_type_symbol
 _atom_site_label
 _atom_site_symmetry_multiplicity
 _atom_site_fract_x
 _atom_site_fract_y
 _atom_site_fract_z
 _atom_site_fract_occupancy
 O  O1  1  0.74805  0.24805  0.50000  1
 O  O2  1  0.24805  0.74805  0.50000  1
 S  S1  1  0.62888  0.62888  -0.00000  1
 S  S2  1  0.36983  0.36983  -0.00000  1
 S  S3  1  0.00350  0.00350  0.00000  1
 U  U1  1  0.19045  0.19045  -0.00000  1
 Y  Y1  1  0.49851  0.49851  -0.00000  1
 Y  Y2  1  0.81272  0.81272  -0.00000  1
