CIF file written using JARVIS-Tools package.
data_V4Ir
_symmetry_space_group_name_H-M  'Fmmm'
_cell_length_a       10.4572
_cell_length_b       10.3319
_cell_length_c       2.67572
_cell_angle_alpha    85.2755
_cell_angle_beta     79.9507
_cell_angle_gamma    14.7738

_symmetry_Int_Tables_number  69
_chemical_formula_structural  V4Ir
_chemical_formula_sum  V4Ir
_cell_volume  68.16020704661473
_cell_formula_units_Z  1
loop_
  _symmetry_equiv_pos_site_id
 _symmetry_equiv_pos_as_xyz
 1  'x, y, z'
loop_
 _atom_site_type_symbol
 _atom_site_label
 _atom_site_symmetry_multiplicity
 _atom_site_fract_x
 _atom_site_fract_y
 _atom_site_fract_z
 _atom_site_fract_occupancy
 Ir  Ir1  1  0.00000  0.00000  0.00000  1
 V  V1  1  0.39645  0.39645  0.60355  1
 V  V2  1  0.79957  0.79957  0.20043  1
 V  V3  1  0.20043  0.20043  0.79957  1
 V  V4  1  0.60355  0.60355  0.39645  1
