CIF file written using JARVIS-Tools package.
data_RbSO4
_symmetry_space_group_name_H-M  'I4_1/amd'
_cell_length_a       7.55483
_cell_length_b       7.55824
_cell_length_c       7.71992
_cell_angle_alpha    60.6735
_cell_angle_beta     90
_cell_angle_gamma    90

_symmetry_Int_Tables_number  141
_chemical_formula_structural  RbSO4
_chemical_formula_sum  Rb4S4O6
_cell_volume  384.32354000135064
_cell_formula_units_Z  4
loop_
  _symmetry_equiv_pos_site_id
 _symmetry_equiv_pos_as_xyz
 1  'x, y, z'
loop_
 _atom_site_type_symbol
 _atom_site_label
 _atom_site_symmetry_multiplicity
 _atom_site_fract_x
 _atom_site_fract_y
 _atom_site_fract_z
 _atom_site_fract_occupancy
 O  O1  1  0.35739  0.30117  0.62591  1
 O  O2  1  0.87914  0.30116  0.12593  1
 O  O3  1  0.37914  0.69884  0.87407  1
 O  O4  1  0.10690  0.42689  0.87338  1
 O  O5  1  0.12962  0.42688  0.37337  1
 O  O6  1  0.87912  0.19884  0.87412  1
 O  O7  1  0.37912  0.80116  0.12588  1
 O  O8  1  0.60690  0.57311  0.12662  1
 O  O9  1  0.60695  0.92682  0.87341  1
 O  O10  1  0.35739  0.19882  0.37412  1
 O  O11  1  0.85739  0.80118  0.62588  1
 O  O12  1  0.62962  0.57312  0.62663  1
 O  O13  1  0.85739  0.69883  0.37409  1
 O  O14  1  0.12957  0.07318  0.62661  1
 O  O15  1  0.62957  0.92682  0.37339  1
 O  O16  1  0.10695  0.07318  0.12659  1
 Rb  Rb1  1  0.24342  0.75001  0.49998  1
 Rb  Rb2  1  0.74342  0.24999  0.50002  1
 Rb  Rb3  1  0.99307  0.75001  -0.00001  1
 Rb  Rb4  1  0.49307  0.24999  0.00001  1
 S  S1  1  0.74347  0.74999  0.50000  1
 S  S2  1  0.24347  0.25001  0.50000  1
 S  S3  1  0.49305  0.74998  -0.00000  1
 S  S4  1  0.99305  0.25002  0.00000  1
