CIF file written using JARVIS-Tools package.
data_RbAlO
_symmetry_space_group_name_H-M  'Pm'
_cell_length_a       7.5952
_cell_length_b       4.15878
_cell_length_c       3.94395
_cell_angle_alpha    90
_cell_angle_beta     90
_cell_angle_gamma    59.2765

_symmetry_Int_Tables_number  6
_chemical_formula_structural  RbAlO
_chemical_formula_sum  RbAlO
_cell_volume  107.09144155340792
_cell_formula_units_Z  1
loop_
  _symmetry_equiv_pos_site_id
 _symmetry_equiv_pos_as_xyz
 1  'x, y, z'
loop_
 _atom_site_type_symbol
 _atom_site_label
 _atom_site_symmetry_multiplicity
 _atom_site_fract_x
 _atom_site_fract_y
 _atom_site_fract_z
 _atom_site_fract_occupancy
 Al  Al1  1  0.39117  0.00317  0.00000  1
 O  O1  1  0.13631  0.26829  0.00000  1
 Rb  Rb1  1  -0.10831  -0.00320  0.00000  1
