CIF file written using JARVIS-Tools package.
data_RbAlO2
_symmetry_space_group_name_H-M  'R-3m'
_cell_length_a       6.50588
_cell_length_b       6.50588
_cell_length_c       6.50588
_cell_angle_alpha    26.8481
_cell_angle_beta     26.8481
_cell_angle_gamma    26.8481

_symmetry_Int_Tables_number  166
_chemical_formula_structural  RbAlO2
_chemical_formula_sum  RbAlO2
_cell_volume  49.530853371623074
_cell_formula_units_Z  1
loop_
  _symmetry_equiv_pos_site_id
 _symmetry_equiv_pos_as_xyz
 1  'x, y, z'
loop_
 _atom_site_type_symbol
 _atom_site_label
 _atom_site_symmetry_multiplicity
 _atom_site_fract_x
 _atom_site_fract_y
 _atom_site_fract_z
 _atom_site_fract_occupancy
 Al  Al1  1  0.50000  0.50000  0.50000  1
 O  O1  1  0.78136  0.78136  0.78136  1
 O  O2  1  0.21864  0.21864  0.21864  1
 Rb  Rb1  1  0.00000  0.00000  0.00000  1
