CIF file written using JARVIS-Tools package.
data_Ti4C3N
_symmetry_space_group_name_H-M  'R-3m'
_cell_length_a       10.1109
_cell_length_b       10.1109
_cell_length_c       10.1109
_cell_angle_alpha    17.3542
_cell_angle_beta     17.3541
_cell_angle_gamma    17.3542

_symmetry_Int_Tables_number  166
_chemical_formula_structural  Ti4C3N
_chemical_formula_sum  Ti4C3N
_cell_volume  80.2493713847117
_cell_formula_units_Z  1
loop_
  _symmetry_equiv_pos_site_id
 _symmetry_equiv_pos_as_xyz
 1  'x, y, z'
loop_
 _atom_site_type_symbol
 _atom_site_label
 _atom_site_symmetry_multiplicity
 _atom_site_fract_x
 _atom_site_fract_y
 _atom_site_fract_z
 _atom_site_fract_occupancy
 C  C1  1  0.25112  0.25112  0.25112  1
 C  C2  1  0.50000  0.50000  0.50000  1
 C  C3  1  0.74888  0.74888  0.74888  1
 N  N1  1  0.00000  0.00000  0.00000  1
 Ti  Ti1  1  0.87470  0.87470  0.87470  1
 Ti  Ti2  1  0.12530  0.12530  0.12530  1
 Ti  Ti3  1  0.37566  0.37566  0.37566  1
 Ti  Ti4  1  0.62434  0.62434  0.62434  1
