CIF file written using JARVIS-Tools package.
data_Bi3Te4Cl5O10
_symmetry_space_group_name_H-M  'C2/m'
_cell_length_a       7.95501
_cell_length_b       7.955
_cell_length_c       13.2619
_cell_angle_alpha    83.5161
_cell_angle_beta     83.5161
_cell_angle_gamma    29.8538

_symmetry_Int_Tables_number  12
_chemical_formula_structural  Bi3Te4Cl5O10
_chemical_formula_sum  Bi3Te4Cl5O0
_cell_volume  414.90039026707575
_cell_formula_units_Z  1
loop_
  _symmetry_equiv_pos_site_id
 _symmetry_equiv_pos_as_xyz
 1  'x, y, z'
loop_
 _atom_site_type_symbol
 _atom_site_label
 _atom_site_symmetry_multiplicity
 _atom_site_fract_x
 _atom_site_fract_y
 _atom_site_fract_z
 _atom_site_fract_occupancy
 Bi  Bi1  1  0.00000  0.00000  0.00000  1
 Bi  Bi2  1  0.78316  0.78316  0.80924  1
 Bi  Bi3  1  0.21684  0.21684  0.19076  1
 Cl  Cl1  1  0.84440  0.84440  0.27718  1
 Cl  Cl2  1  0.17673  0.17673  0.97334  1
 Cl  Cl3  1  0.50000  0.50000  0.50000  1
 Cl  Cl4  1  0.82327  0.82327  0.02666  1
 Cl  Cl5  1  0.15560  0.15560  0.72282  1
 O  O1  1  0.48535  0.48535  0.10034  1
 O  O2  1  0.05688  0.05688  0.19351  1
 O  O3  1  0.29292  0.29292  0.49849  1
 O  O4  1  0.70708  0.70708  0.50151  1
 O  O5  1  0.16049  0.16049  0.35440  1
 O  O6  1  0.83951  0.83951  0.64560  1
 O  O7  1  0.34778  0.34778  0.80590  1
 O  O8  1  0.65222  0.65222  0.19410  1
 O  O9  1  0.51465  0.51465  0.89966  1
 O  O10  1  0.94312  0.94312  0.80649  1
 Te  Te1  1  0.47434  0.47434  0.77003  1
 Te  Te2  1  0.83965  0.83965  0.50536  1
 Te  Te3  1  0.16035  0.16035  0.49464  1
 Te  Te4  1  0.52566  0.52566  0.22997  1
