CIF file written using JARVIS-Tools package.
data_TbPS
_symmetry_space_group_name_H-M  'Pnma'
_cell_length_a       5.35566
_cell_length_b       5.38566
_cell_length_c       16.7622
_cell_angle_alpha    90
_cell_angle_beta     90
_cell_angle_gamma    90

_symmetry_Int_Tables_number  62
_chemical_formula_structural  TbPS
_chemical_formula_sum  Tb8P8S8
_cell_volume  483.4847992356994
_cell_formula_units_Z  8
loop_
  _symmetry_equiv_pos_site_id
 _symmetry_equiv_pos_as_xyz
 1  'x, y, z'
loop_
 _atom_site_type_symbol
 _atom_site_label
 _atom_site_symmetry_multiplicity
 _atom_site_fract_x
 _atom_site_fract_y
 _atom_site_fract_z
 _atom_site_fract_occupancy
 P  P1  1  0.96364  0.70786  0.00247  1
 P  P2  1  0.03636  0.29214  0.99753  1
 P  P3  1  0.03636  0.79214  0.50247  1
 P  P4  1  0.46364  0.29214  0.99753  1
 P  P5  1  0.53636  0.20786  0.49753  1
 P  P6  1  0.46364  0.79214  0.50247  1
 P  P7  1  0.96364  0.20786  0.49753  1
 P  P8  1  0.53636  0.70786  0.00247  1
 S  S1  1  0.25000  0.51102  0.68424  1
 S  S2  1  0.25000  0.01102  0.81576  1
 S  S3  1  0.75000  0.01429  0.68918  1
 S  S4  1  0.75000  0.51429  0.81082  1
 S  S5  1  0.25000  0.98571  0.31082  1
 S  S6  1  0.25000  0.48571  0.18918  1
 S  S7  1  0.75000  0.48898  0.31576  1
 S  S8  1  0.75000  0.98898  0.18424  1
 Tb  Tb1  1  0.75000  0.48559  0.14632  1
 Tb  Tb2  1  0.75000  0.98559  0.35368  1
 Tb  Tb3  1  0.25000  0.51441  0.85368  1
 Tb  Tb4  1  0.25000  0.01441  0.64632  1
 Tb  Tb5  1  0.75000  0.01548  0.86191  1
 Tb  Tb6  1  0.75000  0.51548  0.63809  1
 Tb  Tb7  1  0.25000  0.98452  0.13809  1
 Tb  Tb8  1  0.25000  0.48452  0.36191  1
