CIF file written using JARVIS-Tools package.
data_TbMnAl
_symmetry_space_group_name_H-M  'Imma'
_cell_length_a       5.27474
_cell_length_b       5.27474
_cell_length_c       5.27474
_cell_angle_alpha    87.2231
_cell_angle_beta     63.922
_cell_angle_gamma    120.794

_symmetry_Int_Tables_number  74
_chemical_formula_structural  TbMnAl
_chemical_formula_sum  Tb2Mn2Al2
_cell_volume  105.8799767581539
_cell_formula_units_Z  2
loop_
  _symmetry_equiv_pos_site_id
 _symmetry_equiv_pos_as_xyz
 1  'x, y, z'
loop_
 _atom_site_type_symbol
 _atom_site_label
 _atom_site_symmetry_multiplicity
 _atom_site_fract_x
 _atom_site_fract_y
 _atom_site_fract_z
 _atom_site_fract_occupancy
 Al  Al1  1  0.75000  0.37500  0.87500  1
 Al  Al2  1  0.25000  0.37500  0.37500  1
 Mn  Mn1  1  0.25000  0.87500  0.37500  1
 Mn  Mn2  1  0.75000  0.37500  0.37500  1
 Tb  Tb1  1  0.50000  0.76292  0.73708  1
 Tb  Tb2  1  0.00000  0.98708  0.01292  1
