CIF file written using JARVIS-Tools package.
data_Al2SO2
_symmetry_space_group_name_H-M  'P-3m1'
_cell_length_a       3.09411
_cell_length_b       3.0941
_cell_length_c       6.94668
_cell_angle_alpha    90
_cell_angle_beta     90
_cell_angle_gamma    120

_symmetry_Int_Tables_number  164
_chemical_formula_structural  Al2SO2
_chemical_formula_sum  Al2SO2
_cell_volume  57.59415246683763
_cell_formula_units_Z  1
loop_
  _symmetry_equiv_pos_site_id
 _symmetry_equiv_pos_as_xyz
 1  'x, y, z'
loop_
 _atom_site_type_symbol
 _atom_site_label
 _atom_site_symmetry_multiplicity
 _atom_site_fract_x
 _atom_site_fract_y
 _atom_site_fract_z
 _atom_site_fract_occupancy
 Al  Al1  1  0.66667  0.33333  0.25178  1
 Al  Al2  1  0.33333  0.66667  0.74822  1
 O  O1  1  0.33333  0.66667  0.33796  1
 O  O2  1  0.66667  0.33333  0.66204  1
 S  S1  1  0.00000  0.00000  0.00000  1
