CIF file written using JARVIS-Tools package.
data_SnTePb4S4
_symmetry_space_group_name_H-M  'R3m'
_cell_length_a       17.6986
_cell_length_b       17.6986
_cell_length_c       17.6986
_cell_angle_alpha    13.9417
_cell_angle_beta     13.9416
_cell_angle_gamma    13.9417

_symmetry_Int_Tables_number  160
_chemical_formula_structural  SnTePb4S4
_chemical_formula_sum  SnTePb4S4
_cell_volume  280.0770335710905
_cell_formula_units_Z  1
loop_
  _symmetry_equiv_pos_site_id
 _symmetry_equiv_pos_as_xyz
 1  'x, y, z'
loop_
 _atom_site_type_symbol
 _atom_site_label
 _atom_site_symmetry_multiplicity
 _atom_site_fract_x
 _atom_site_fract_y
 _atom_site_fract_z
 _atom_site_fract_occupancy
 Pb  Pb1  1  0.00455  0.00455  0.00455  1
 Pb  Pb2  1  0.40243  0.40243  0.40243  1
 Pb  Pb3  1  0.80044  0.80044  0.80044  1
 Pb  Pb4  1  0.19837  0.19837  0.19837  1
 S  S1  1  0.70319  0.70319  0.70319  1
 S  S2  1  0.10129  0.10129  0.10129  1
 S  S3  1  0.49941  0.49941  0.49941  1
 S  S4  1  0.89759  0.89759  0.89759  1
 Sn  Sn1  1  0.59441  0.59441  0.59441  1
 Te  Te1  1  0.29832  0.29832  0.29832  1
