CIF file written using JARVIS-Tools package.
data_Li8Sm7Ge10
_symmetry_space_group_name_H-M  'Cmmm'
_cell_length_a       16.8988
_cell_length_b       16.8988
_cell_length_c       4.37607
_cell_angle_alpha    90
_cell_angle_beta     90
_cell_angle_gamma    156.667

_symmetry_Int_Tables_number  65
_chemical_formula_structural  Li8Sm7Ge10
_chemical_formula_sum  Li8Sm7Ge0
_cell_volume  494.9603846304494
_cell_formula_units_Z  1
loop_
  _symmetry_equiv_pos_site_id
 _symmetry_equiv_pos_as_xyz
 1  'x, y, z'
loop_
 _atom_site_type_symbol
 _atom_site_label
 _atom_site_symmetry_multiplicity
 _atom_site_fract_x
 _atom_site_fract_y
 _atom_site_fract_z
 _atom_site_fract_occupancy
 Ge  Ge1  1  0.68837  0.68837  0.50000  1
 Ge  Ge2  1  0.09378  0.90622  0.00000  1
 Ge  Ge3  1  0.62626  0.37374  0.50000  1
 Ge  Ge4  1  0.37374  0.62626  0.50000  1
 Ge  Ge5  1  0.02880  0.59971  0.00000  1
 Ge  Ge6  1  0.97120  0.40029  0.00000  1
 Ge  Ge7  1  0.59971  0.02880  0.00000  1
 Ge  Ge8  1  0.40029  0.97120  0.00000  1
 Ge  Ge9  1  0.31163  0.31163  0.50000  1
 Ge  Ge10  1  0.90622  0.09378  0.00000  1
 Li  Li1  1  0.26592  0.11527  0.50000  1
 Li  Li2  1  0.83031  0.54552  0.00000  1
 Li  Li3  1  0.16969  0.45448  0.00000  1
 Li  Li4  1  0.54552  0.83031  0.00000  1
 Li  Li5  1  0.45448  0.16969  0.00000  1
 Li  Li6  1  0.88473  0.73408  0.50000  1
 Li  Li7  1  0.11527  0.26592  0.50000  1
 Li  Li8  1  0.73408  0.88473  0.50000  1
 Sm  Sm1  1  0.44333  0.55667  0.00000  1
 Sm  Sm2  1  0.55667  0.44333  0.00000  1
 Sm  Sm3  1  0.16134  0.83866  0.50000  1
 Sm  Sm4  1  0.27929  0.72071  0.50000  1
 Sm  Sm5  1  0.00000  0.00000  0.00000  1
 Sm  Sm6  1  0.72071  0.27929  0.50000  1
 Sm  Sm7  1  0.83866  0.16134  0.50000  1
