CIF file written using JARVIS-Tools package.
data_TaMoS4
_symmetry_space_group_name_H-M  'Cm'
_cell_length_a       6.38111
_cell_length_b       6.38111
_cell_length_c       5.68589
_cell_angle_alpha    81.424
_cell_angle_beta     81.424
_cell_angle_gamma    29.7626

_symmetry_Int_Tables_number  8
_chemical_formula_structural  TaMoS4
_chemical_formula_sum  TaMoS4
_cell_volume  113.55299879049807
_cell_formula_units_Z  1
loop_
  _symmetry_equiv_pos_site_id
 _symmetry_equiv_pos_as_xyz
 1  'x, y, z'
loop_
 _atom_site_type_symbol
 _atom_site_label
 _atom_site_symmetry_multiplicity
 _atom_site_fract_x
 _atom_site_fract_y
 _atom_site_fract_z
 _atom_site_fract_occupancy
 Mo  Mo1  1  0.25007  0.25007  0.58244  1
 S  S1  1  0.37860  0.37860  0.21036  1
 S  S2  1  0.87690  0.87690  0.70356  1
 S  S3  1  0.62295  0.62295  0.78857  1
 S  S4  1  0.12127  0.12127  0.29659  1
 Ta  Ta1  1  0.75012  0.75012  0.08518  1
