CIF file written using JARVIS-Tools package.
data_Nd3GaNiS7
_symmetry_space_group_name_H-M  'P6_3'
_cell_length_a       9.78737
_cell_length_b       9.78737
_cell_length_c       6.27514
_cell_angle_alpha    90
_cell_angle_beta     90
_cell_angle_gamma    120

_symmetry_Int_Tables_number  173
_chemical_formula_structural  Nd3GaNiS7
_chemical_formula_sum  Nd6Ga2Ni2S4
_cell_volume  520.5780670968684
_cell_formula_units_Z  2
loop_
  _symmetry_equiv_pos_site_id
 _symmetry_equiv_pos_as_xyz
 1  'x, y, z'
loop_
 _atom_site_type_symbol
 _atom_site_label
 _atom_site_symmetry_multiplicity
 _atom_site_fract_x
 _atom_site_fract_y
 _atom_site_fract_z
 _atom_site_fract_occupancy
 Ga  Ga1  1  0.33333  0.66667  0.60078  1
 Ga  Ga2  1  0.66667  0.33333  0.10078  1
 Nd  Nd1  1  0.83555  0.62417  0.67627  1
 Nd  Nd2  1  0.78863  0.16445  0.67627  1
 Nd  Nd3  1  0.37583  0.21137  0.67627  1
 Nd  Nd4  1  0.16445  0.37583  0.17627  1
 Nd  Nd5  1  0.21137  0.83555  0.17627  1
 Nd  Nd6  1  0.62417  0.78863  0.17627  1
 Ni  Ni1  1  0.00000  0.00000  0.99695  1
 Ni  Ni2  1  0.00000  0.00000  0.49695  1
 S  S1  1  0.55893  0.47329  0.95578  1
 S  S2  1  0.22851  0.12685  0.26246  1
 S  S3  1  0.52671  0.08564  0.95578  1
 S  S4  1  0.44107  0.52671  0.45578  1
 S  S5  1  0.08564  0.55893  0.45578  1
 S  S6  1  0.91436  0.44107  0.95578  1
 S  S7  1  0.10166  0.22851  0.76246  1
 S  S8  1  0.66667  0.33333  0.46134  1
 S  S9  1  0.12685  0.89834  0.76246  1
 S  S10  1  0.77149  0.87315  0.76246  1
 S  S11  1  0.47329  0.91436  0.45578  1
 S  S12  1  0.87315  0.10166  0.26246  1
 S  S13  1  0.33333  0.66667  0.96134  1
 S  S14  1  0.89834  0.77149  0.26246  1
