CIF file written using JARVIS-Tools package.
data_ScAlO2
_symmetry_space_group_name_H-M  'R3m'
_cell_length_a       7.03016
_cell_length_b       7.03016
_cell_length_c       7.03016
_cell_angle_alpha    25.8695
_cell_angle_beta     25.8695
_cell_angle_gamma    25.8695

_symmetry_Int_Tables_number  160
_chemical_formula_structural  ScAlO2
_chemical_formula_sum  ScAlO2
_cell_volume  58.25749020443777
_cell_formula_units_Z  1
loop_
  _symmetry_equiv_pos_site_id
 _symmetry_equiv_pos_as_xyz
 1  'x, y, z'
loop_
 _atom_site_type_symbol
 _atom_site_label
 _atom_site_symmetry_multiplicity
 _atom_site_fract_x
 _atom_site_fract_y
 _atom_site_fract_z
 _atom_site_fract_occupancy
 Al  Al1  1  0.18235  0.18235  0.18235  1
 O  O1  1  0.26933  0.26933  0.26933  1
 O  O2  1  0.70907  0.70907  0.70907  1
 Sc  Sc1  1  -0.00175  -0.00175  -0.00174  1
