CIF file written using JARVIS-Tools package.
data_KAsO3
_symmetry_space_group_name_H-M  'P-1'
_cell_length_a       7.486
_cell_length_b       7.47889
_cell_length_c       10.2453
_cell_angle_alpha    87.1573
_cell_angle_beta     111.205
_cell_angle_gamma    105.151

_symmetry_Int_Tables_number  2
_chemical_formula_structural  KAsO3
_chemical_formula_sum  K6As6O8
_cell_volume  515.5301758542331
_cell_formula_units_Z  6
loop_
  _symmetry_equiv_pos_site_id
 _symmetry_equiv_pos_as_xyz
 1  'x, y, z'
loop_
 _atom_site_type_symbol
 _atom_site_label
 _atom_site_symmetry_multiplicity
 _atom_site_fract_x
 _atom_site_fract_y
 _atom_site_fract_z
 _atom_site_fract_occupancy
 As  As1  1  0.46156  0.00587  0.19381  1
 As  As2  1  0.27719  0.73598  0.52564  1
 As  As3  1  0.53844  0.99413  0.80619  1
 As  As4  1  0.72281  0.26402  0.47436  1
 As  As5  1  0.17962  0.64233  0.80457  1
 As  As6  1  0.82038  0.35767  0.19543  1
 K  K1  1  0.08803  0.10763  0.83423  1
 K  K2  1  0.67688  0.51207  0.82013  1
 K  K3  1  0.75828  0.76088  0.49852  1
 K  K4  1  0.24172  0.23912  0.50148  1
 K  K5  1  0.91197  0.89237  0.16577  1
 K  K6  1  0.32312  0.48793  0.17987  1
 O  O1  1  0.42287  0.80006  0.88805  1
 O  O2  1  0.41087  0.15475  0.76531  1
 O  O3  1  0.58913  0.84525  0.23469  1
 O  O4  1  0.17531  0.46076  0.90489  1
 O  O5  1  0.22281  0.95420  0.09294  1
 O  O6  1  0.51497  0.87420  0.64649  1
 O  O7  1  0.48503  0.12580  0.35351  1
 O  O8  1  0.77719  0.04580  0.90706  1
 O  O9  1  -0.00270  0.74861  0.76128  1
 O  O10  1  0.33904  0.61420  0.42467  1
 O  O11  1  0.66096  0.38580  0.57533  1
 O  O12  1  0.20871  0.56875  0.64723  1
 O  O13  1  0.79129  0.43125  0.35277  1
 O  O14  1  0.57713  0.19994  0.11195  1
 O  O15  1  0.00270  0.25139  0.23872  1
 O  O16  1  0.88603  0.13769  0.53930  1
 O  O17  1  0.11397  0.86231  0.46070  1
 O  O18  1  0.82469  0.53924  0.09511  1
