CIF file written using JARVIS-Tools package.
data_MnTlOF4
_symmetry_space_group_name_H-M  'C2/m'
_cell_length_a       7.81829
_cell_length_b       7.81829
_cell_length_c       8.18264
_cell_angle_alpha    78.2202
_cell_angle_beta     78.2201
_cell_angle_gamma    54.7481

_symmetry_Int_Tables_number  12
_chemical_formula_structural  MnTlOF4
_chemical_formula_sum  Mn4Tl4O4F6
_cell_volume  397.50945644333063
_cell_formula_units_Z  4
loop_
  _symmetry_equiv_pos_site_id
 _symmetry_equiv_pos_as_xyz
 1  'x, y, z'
loop_
 _atom_site_type_symbol
 _atom_site_label
 _atom_site_symmetry_multiplicity
 _atom_site_fract_x
 _atom_site_fract_y
 _atom_site_fract_z
 _atom_site_fract_occupancy
 F  F1  1  0.36728  0.50915  0.15652  1
 F  F2  1  0.14549  0.64546  0.44709  1
 F  F3  1  0.63272  0.49085  0.84348  1
 F  F4  1  0.85451  0.35454  0.55291  1
 F  F5  1  0.64546  0.14549  0.94709  1
 F  F6  1  0.74006  0.75996  0.50004  1
 F  F7  1  0.24004  0.25994  -0.00004  1
 F  F8  1  0.35454  0.85451  0.05291  1
 F  F9  1  0.75996  0.74006  0.00004  1
 F  F10  1  0.00918  0.86724  0.15652  1
 F  F11  1  0.13276  -0.00918  0.34348  1
 F  F12  1  -0.00918  0.13276  0.84348  1
 F  F13  1  0.86724  0.00918  0.65652  1
 F  F14  1  0.50915  0.36728  0.65652  1
 F  F15  1  0.49085  0.63272  0.34348  1
 F  F16  1  0.25994  0.24004  0.49996  1
 Mn  Mn1  1  0.74998  0.25002  0.75000  1
 Mn  Mn2  1  0.25002  0.74998  0.25000  1
 Mn  Mn3  1  0.50000  -0.00000  -0.00000  1
 Mn  Mn4  1  0.00000  0.50000  0.50000  1
 O  O1  1  -0.00101  0.49909  0.29844  1
 O  O2  1  0.50091  0.00101  0.20156  1
 O  O3  1  0.00101  0.50091  0.70156  1
 O  O4  1  0.49909  -0.00101  0.79844  1
 Tl  Tl1  1  0.13714  0.63717  0.87567  1
 Tl  Tl2  1  0.36283  0.86286  0.62433  1
 Tl  Tl3  1  0.86286  0.36283  0.12433  1
 Tl  Tl4  1  0.63717  0.13714  0.37567  1
