CIF file written using JARVIS-Tools package.
data_LuScB2O6
_symmetry_space_group_name_H-M  'R-3'
_cell_length_a       5.92379
_cell_length_b       5.92378
_cell_length_c       5.92378
_cell_angle_alpha    48.3459
_cell_angle_beta     48.3458
_cell_angle_gamma    48.3458

_symmetry_Int_Tables_number  148
_chemical_formula_structural  LuScB2O6
_chemical_formula_sum  LuScB2O6
_cell_volume  106.39665568947078
_cell_formula_units_Z  1
loop_
  _symmetry_equiv_pos_site_id
 _symmetry_equiv_pos_as_xyz
 1  'x, y, z'
loop_
 _atom_site_type_symbol
 _atom_site_label
 _atom_site_symmetry_multiplicity
 _atom_site_fract_x
 _atom_site_fract_y
 _atom_site_fract_z
 _atom_site_fract_occupancy
 B  B1  1  0.25307  0.25307  0.25307  1
 B  B2  1  0.74693  0.74693  0.74693  1
 Lu  Lu1  1  0.50000  0.50000  0.50000  1
 O  O1  1  0.54314  0.97215  0.24107  1
 O  O2  1  0.24107  0.54314  0.97215  1
 O  O3  1  0.97215  0.24107  0.54314  1
 O  O4  1  0.75893  0.45686  0.02785  1
 O  O5  1  0.02785  0.75893  0.45686  1
 O  O6  1  0.45686  0.02785  0.75893  1
 Sc  Sc1  1  0.00000  0.00000  0.00000  1
