CIF file written using JARVIS-Tools package.
data_YMnO4
_symmetry_space_group_name_H-M  'I-4m2'
_cell_length_a       6.06151
_cell_length_b       6.06151
_cell_length_c       6.06151
_cell_angle_alpha    142.936
_cell_angle_beta     142.936
_cell_angle_gamma    53.4206

_symmetry_Int_Tables_number  119
_chemical_formula_structural  YMnO4
_chemical_formula_sum  YMnO4
_cell_volume  80.3866526886969
_cell_formula_units_Z  1
loop_
  _symmetry_equiv_pos_site_id
 _symmetry_equiv_pos_as_xyz
 1  'x, y, z'
loop_
 _atom_site_type_symbol
 _atom_site_label
 _atom_site_symmetry_multiplicity
 _atom_site_fract_x
 _atom_site_fract_y
 _atom_site_fract_z
 _atom_site_fract_occupancy
 Mn  Mn1  1  0.00000  0.00000  0.00000  1
 O  O1  1  0.97948  0.47948  0.50000  1
 O  O2  1  0.83129  0.83129  -0.00000  1
 O  O3  1  0.52052  0.02052  0.50000  1
 O  O4  1  0.16871  0.16871  0.00000  1
 Y  Y1  1  0.75000  0.25000  0.50000  1
