CIF file written using JARVIS-Tools package.
data_YWN3
_symmetry_space_group_name_H-M  'R3m'
_cell_length_a       3.99219
_cell_length_b       3.99219
_cell_length_c       3.99219
_cell_angle_alpha    88.8932
_cell_angle_beta     88.8932
_cell_angle_gamma    88.893

_symmetry_Int_Tables_number  160
_chemical_formula_structural  YWN3
_chemical_formula_sum  YWN3
_cell_volume  63.59050063095785
_cell_formula_units_Z  1
loop_
  _symmetry_equiv_pos_site_id
 _symmetry_equiv_pos_as_xyz
 1  'x, y, z'
loop_
 _atom_site_type_symbol
 _atom_site_label
 _atom_site_symmetry_multiplicity
 _atom_site_fract_x
 _atom_site_fract_y
 _atom_site_fract_z
 _atom_site_fract_occupancy
 N  N1  1  0.39447  0.91335  0.39447  1
 N  N2  1  0.91335  0.39447  0.39447  1
 N  N3  1  0.39447  0.39447  0.91335  1
 W  W1  1  0.44647  0.44647  0.44647  1
 Y  Y1  1  0.97623  0.97623  0.97623  1
