CIF file written using JARVIS-Tools package.
data_MoCl2
_symmetry_space_group_name_H-M  'C2/m'
_cell_length_a       3.16854
_cell_length_b       7.22582
_cell_length_c       3.17196
_cell_angle_alpha    77.1958
_cell_angle_beta     60.0714
_cell_angle_gamma    102.143

_symmetry_Int_Tables_number  12
_chemical_formula_structural  MoCl2
_chemical_formula_sum  MoCl2
_cell_volume  56.77615040221608
_cell_formula_units_Z  1
loop_
  _symmetry_equiv_pos_site_id
 _symmetry_equiv_pos_as_xyz
 1  'x, y, z'
loop_
 _atom_site_type_symbol
 _atom_site_label
 _atom_site_symmetry_multiplicity
 _atom_site_fract_x
 _atom_site_fract_y
 _atom_site_fract_z
 _atom_site_fract_occupancy
 Cl  Cl1  1  0.39258  0.60001  0.02504  1
 Cl  Cl2  1  0.56771  0.12130  0.17564  1
 Mo  Mo1  1  -0.01985  0.86066  0.10034  1
