CIF file written using JARVIS-Tools package.
data_Ga2Ni21B6
_symmetry_space_group_name_H-M  'Fm-3m'
_cell_length_a       7.39467
_cell_length_b       7.39467
_cell_length_c       7.39467
_cell_angle_alpha    60
_cell_angle_beta     60
_cell_angle_gamma    60

_symmetry_Int_Tables_number  225
_chemical_formula_structural  Ga2Ni21B6
_chemical_formula_sum  Ga2Ni2B6
_cell_volume  285.91790437733835
_cell_formula_units_Z  1
loop_
  _symmetry_equiv_pos_site_id
 _symmetry_equiv_pos_as_xyz
 1  'x, y, z'
loop_
 _atom_site_type_symbol
 _atom_site_label
 _atom_site_symmetry_multiplicity
 _atom_site_fract_x
 _atom_site_fract_y
 _atom_site_fract_z
 _atom_site_fract_occupancy
 B  B1  1  0.27386  0.72614  0.72614  1
 B  B2  1  0.72614  0.27386  0.27386  1
 B  B3  1  0.27386  0.72614  0.27386  1
 B  B4  1  0.72614  0.72614  0.27386  1
 B  B5  1  0.72614  0.27386  0.72614  1
 B  B6  1  0.27386  0.27386  0.72614  1
 Ga  Ga1  1  0.75000  0.75000  0.75000  1
 Ga  Ga2  1  0.25000  0.25000  0.25000  1
 Ni  Ni1  1  0.33710  0.66290  0.00000  1
 Ni  Ni2  1  0.66290  0.00000  -0.00000  1
 Ni  Ni3  1  0.00000  0.66290  0.00000  1
 Ni  Ni4  1  0.00000  0.00000  0.66290  1
 Ni  Ni5  1  0.00000  0.00000  0.33710  1
 Ni  Ni6  1  0.00000  0.00000  0.00000  1
 Ni  Ni7  1  0.61784  0.61784  0.14648  1
 Ni  Ni8  1  0.61784  0.14648  0.61784  1
 Ni  Ni9  1  0.14648  0.61784  0.61784  1
 Ni  Ni10  1  0.61784  0.61784  0.61784  1
 Ni  Ni11  1  0.38216  0.38216  0.85352  1
 Ni  Ni12  1  0.38216  0.85352  0.38216  1
 Ni  Ni13  1  0.33710  0.00000  -0.00000  1
 Ni  Ni14  1  0.38216  0.38216  0.38216  1
 Ni  Ni15  1  0.66290  0.33710  -0.00000  1
 Ni  Ni16  1  0.66290  0.00000  0.33710  1
 Ni  Ni17  1  0.00000  0.66290  0.33710  1
 Ni  Ni18  1  -0.00000  0.33710  -0.00000  1
 Ni  Ni19  1  -0.00000  0.33710  0.66290  1
 Ni  Ni20  1  0.33710  0.00000  0.66290  1
 Ni  Ni21  1  0.85352  0.38216  0.38216  1
