CIF file written using JARVIS-Tools package.
data_GeTe5Pb4
_symmetry_space_group_name_H-M  'R-3m'
_cell_length_a       18.899
_cell_length_b       18.899
_cell_length_c       18.899
_cell_angle_alpha    13.8301
_cell_angle_beta     13.8301
_cell_angle_gamma    13.8301

_symmetry_Int_Tables_number  166
_chemical_formula_structural  GeTe5Pb4
_chemical_formula_sum  GeTe5Pb4
_cell_volume  335.6610714473016
_cell_formula_units_Z  1
loop_
  _symmetry_equiv_pos_site_id
 _symmetry_equiv_pos_as_xyz
 1  'x, y, z'
loop_
 _atom_site_type_symbol
 _atom_site_label
 _atom_site_symmetry_multiplicity
 _atom_site_fract_x
 _atom_site_fract_y
 _atom_site_fract_z
 _atom_site_fract_occupancy
 Ge  Ge1  1  0.00000  0.00000  0.00000  1
 Pb  Pb1  1  0.60324  0.60324  0.60324  1
 Pb  Pb2  1  0.20107  0.20107  0.20107  1
 Pb  Pb3  1  0.79893  0.79893  0.79893  1
 Pb  Pb4  1  0.39676  0.39676  0.39676  1
 Te  Te1  1  0.69534  0.69534  0.69534  1
 Te  Te2  1  0.50000  0.50000  0.50000  1
 Te  Te3  1  0.09787  0.09787  0.09787  1
 Te  Te4  1  0.30466  0.30466  0.30466  1
 Te  Te5  1  0.90213  0.90213  0.90213  1
