CIF file written using JARVIS-Tools package.
data_Mn2P12W
_symmetry_space_group_name_H-M  'C2/c'
_cell_length_a       8.55173
_cell_length_b       8.55173
_cell_length_c       10.6365
_cell_angle_alpha    65.7606
_cell_angle_beta     65.7606
_cell_angle_gamma    39.3599

_symmetry_Int_Tables_number  15
_chemical_formula_structural  Mn2P12W
_chemical_formula_sum  Mn4P24W2
_cell_volume  443.9568634942541
_cell_formula_units_Z  2
loop_
  _symmetry_equiv_pos_site_id
 _symmetry_equiv_pos_as_xyz
 1  'x, y, z'
loop_
 _atom_site_type_symbol
 _atom_site_label
 _atom_site_symmetry_multiplicity
 _atom_site_fract_x
 _atom_site_fract_y
 _atom_site_fract_z
 _atom_site_fract_occupancy
 Mn  Mn1  1  0.01087  0.62830  0.04534  1
 Mn  Mn2  1  0.37170  0.98913  0.45466  1
 Mn  Mn3  1  0.98913  0.37170  0.95466  1
 Mn  Mn4  1  0.62830  0.01087  0.54534  1
 P  P1  1  0.56378  0.66855  0.99742  1
 P  P2  1  0.02389  0.67140  0.24055  1
 P  P3  1  0.32860  0.97611  0.25945  1
 P  P4  1  0.97611  0.32860  0.75945  1
 P  P5  1  0.67140  0.02389  0.74055  1
 P  P6  1  0.98988  0.07646  0.07456  1
 P  P7  1  0.92354  0.01012  0.42544  1
 P  P8  1  0.01012  0.92354  0.92544  1
 P  P9  1  0.07646  0.98988  0.57456  1
 P  P10  1  0.66855  0.56378  0.49742  1
 P  P11  1  0.43622  0.33145  0.00258  1
 P  P12  1  0.33145  0.43622  0.50258  1
 P  P13  1  0.64518  0.99792  0.33591  1
 P  P14  1  0.99792  0.64518  0.83591  1
 P  P15  1  0.35482  0.00208  0.66409  1
 P  P16  1  0.70128  0.42184  0.33321  1
 P  P17  1  0.57816  0.29872  0.16679  1
 P  P18  1  0.29872  0.57816  0.66679  1
 P  P19  1  0.42184  0.70128  0.83321  1
 P  P20  1  0.05094  0.40357  0.42428  1
 P  P21  1  0.59643  0.94906  0.07572  1
 P  P22  1  0.94906  0.59643  0.57572  1
 P  P23  1  0.40357  0.05094  0.92428  1
 P  P24  1  0.00208  0.35482  0.16409  1
 W  W1  1  0.30398  0.69602  0.25000  1
 W  W2  1  0.69602  0.30398  0.75000  1
