CIF file written using JARVIS-Tools package.
data_SrPtO2
_symmetry_space_group_name_H-M  'R-3m'
_cell_length_a       6.20992
_cell_length_b       6.20992
_cell_length_c       6.20992
_cell_angle_alpha    37.7409
_cell_angle_beta     37.7409
_cell_angle_gamma    37.7409

_symmetry_Int_Tables_number  166
_chemical_formula_structural  SrPtO2
_chemical_formula_sum  SrPtO2
_cell_volume  80.49909722035301
_cell_formula_units_Z  1
loop_
  _symmetry_equiv_pos_site_id
 _symmetry_equiv_pos_as_xyz
 1  'x, y, z'
loop_
 _atom_site_type_symbol
 _atom_site_label
 _atom_site_symmetry_multiplicity
 _atom_site_fract_x
 _atom_site_fract_y
 _atom_site_fract_z
 _atom_site_fract_occupancy
 O  O1  1  0.10773  0.10773  0.10773  1
 O  O2  1  0.89227  0.89227  0.89227  1
 Pt  Pt1  1  0.00000  0.00000  0.00000  1
 Sr  Sr1  1  0.50000  0.50000  0.50000  1
