CIF file written using JARVIS-Tools package.
data_SrSbO
_symmetry_space_group_name_H-M  'Pmm2'
_cell_length_a       5.21655
_cell_length_b       4.49966
_cell_length_c       3.63747
_cell_angle_alpha    90
_cell_angle_beta     90
_cell_angle_gamma    90.0097

_symmetry_Int_Tables_number  25
_chemical_formula_structural  SrSbO
_chemical_formula_sum  SrSbO
_cell_volume  85.38125509488404
_cell_formula_units_Z  1
loop_
  _symmetry_equiv_pos_site_id
 _symmetry_equiv_pos_as_xyz
 1  'x, y, z'
loop_
 _atom_site_type_symbol
 _atom_site_label
 _atom_site_symmetry_multiplicity
 _atom_site_fract_x
 _atom_site_fract_y
 _atom_site_fract_z
 _atom_site_fract_occupancy
 O  O1  1  -0.00531  -0.08488  0.00000  1
 Sb  Sb1  1  0.38337  -0.08499  0.00000  1
 Sr  Sr1  1  -0.14306  0.41509  0.00000  1
