CIF file written using JARVIS-Tools package.
data_Dy6Zn23
_symmetry_space_group_name_H-M  'Fm-3m'
_cell_length_a       8.94676
_cell_length_b       8.94676
_cell_length_c       8.94676
_cell_angle_alpha    60
_cell_angle_beta     60
_cell_angle_gamma    60

_symmetry_Int_Tables_number  225
_chemical_formula_structural  Dy6Zn23
_chemical_formula_sum  Dy6Zn23
_cell_volume  506.38638621575524
_cell_formula_units_Z  1
loop_
  _symmetry_equiv_pos_site_id
 _symmetry_equiv_pos_as_xyz
 1  'x, y, z'
loop_
 _atom_site_type_symbol
 _atom_site_label
 _atom_site_symmetry_multiplicity
 _atom_site_fract_x
 _atom_site_fract_y
 _atom_site_fract_z
 _atom_site_fract_occupancy
 Dy  Dy1  1  0.70646  0.70646  0.29354  1
 Dy  Dy2  1  0.29354  0.70646  0.29354  1
 Dy  Dy3  1  0.70646  0.29354  0.29354  1
 Dy  Dy4  1  0.29354  0.29354  0.70646  1
 Dy  Dy5  1  0.70646  0.29354  0.70646  1
 Dy  Dy6  1  0.29354  0.70646  0.70646  1
 Zn  Zn1  1  0.00000  0.00000  0.00000  1
 Zn  Zn2  1  0.00000  0.00000  0.50000  1
 Zn  Zn3  1  0.50000  0.00000  0.50000  1
 Zn  Zn4  1  0.00000  0.50000  0.50000  1
 Zn  Zn5  1  0.50000  0.50000  0.00000  1
 Zn  Zn6  1  0.00000  0.50000  0.00000  1
 Zn  Zn7  1  0.50000  0.00000  0.00000  1
 Zn  Zn8  1  0.87724  0.87724  0.36829  1
 Zn  Zn9  1  0.00915  0.33028  0.33028  1
 Zn  Zn10  1  0.36829  0.87724  0.87724  1
 Zn  Zn11  1  0.12276  0.63171  0.12276  1
 Zn  Zn12  1  0.12276  0.12276  0.63171  1
 Zn  Zn13  1  0.87724  0.87724  0.87724  1
 Zn  Zn14  1  0.63171  0.12276  0.12276  1
 Zn  Zn15  1  0.12276  0.12276  0.12276  1
 Zn  Zn16  1  0.66972  0.66972  0.99085  1
 Zn  Zn17  1  0.66972  0.99085  0.66972  1
 Zn  Zn18  1  0.99085  0.66972  0.66972  1
 Zn  Zn19  1  0.66972  0.66972  0.66972  1
 Zn  Zn20  1  0.33028  0.33028  0.00915  1
 Zn  Zn21  1  0.33028  0.00915  0.33028  1
 Zn  Zn22  1  0.87724  0.36829  0.87724  1
 Zn  Zn23  1  0.33028  0.33028  0.33028  1
