CIF file written using JARVIS-Tools package.
data_Y3Te3N
_symmetry_space_group_name_H-M  'P2_1/c'
_cell_length_a       11.9543
_cell_length_b       8.10269
_cell_length_c       8.65342
_cell_angle_alpha    70.9596
_cell_angle_beta     90
_cell_angle_gamma    90

_symmetry_Int_Tables_number  14
_chemical_formula_structural  Y3Te3N
_chemical_formula_sum  Y2Te2N4
_cell_volume  792.3311903528668
_cell_formula_units_Z  4
loop_
  _symmetry_equiv_pos_site_id
 _symmetry_equiv_pos_as_xyz
 1  'x, y, z'
loop_
 _atom_site_type_symbol
 _atom_site_label
 _atom_site_symmetry_multiplicity
 _atom_site_fract_x
 _atom_site_fract_y
 _atom_site_fract_z
 _atom_site_fract_occupancy
 N  N1  1  0.96500  0.67396  0.87630  1
 N  N2  1  0.53500  0.67396  0.37630  1
 N  N3  1  0.46500  0.32604  0.62370  1
 N  N4  1  0.03500  0.32604  0.12370  1
 Te  Te1  1  0.76555  0.49097  0.18763  1
 Te  Te2  1  0.98039  0.77408  0.41480  1
 Te  Te3  1  0.01961  0.22592  0.58520  1
 Te  Te4  1  0.51961  0.77408  0.91480  1
 Te  Te5  1  0.26555  0.50903  0.31237  1
 Te  Te6  1  0.48039  0.22592  0.08520  1
 Te  Te7  1  0.73445  0.49097  0.68763  1
 Te  Te8  1  0.30845  0.95342  0.48328  1
 Te  Te9  1  0.80845  0.04658  0.01672  1
 Te  Te10  1  0.69155  0.04658  0.51672  1
 Te  Te11  1  0.19155  0.95342  0.98328  1
 Te  Te12  1  0.23445  0.50903  0.81237  1
 Y  Y1  1  0.91215  0.15951  0.29519  1
 Y  Y2  1  0.52289  0.39801  0.36160  1
 Y  Y3  1  0.97711  0.39801  0.86160  1
 Y  Y4  1  0.47711  0.60199  0.63840  1
 Y  Y5  1  0.41215  0.84049  0.20481  1
 Y  Y6  1  0.70967  0.76696  0.34557  1
 Y  Y7  1  0.58785  0.15951  0.79519  1
 Y  Y8  1  0.08785  0.84049  0.70481  1
 Y  Y9  1  0.20967  0.23304  0.15443  1
 Y  Y10  1  0.29033  0.23304  0.65443  1
 Y  Y11  1  0.79033  0.76696  0.84557  1
 Y  Y12  1  0.02289  0.60199  0.13840  1
