CIF file written using JARVIS-Tools package.
data_CeSbRh
_symmetry_space_group_name_H-M  'C2/m'
_cell_length_a       5.92135
_cell_length_b       5.92135
_cell_length_c       7.29648
_cell_angle_alpha    53.6242
_cell_angle_beta     53.6243
_cell_angle_gamma    43.8157

_symmetry_Int_Tables_number  12
_chemical_formula_structural  CeSbRh
_chemical_formula_sum  Ce2Sb2Rh2
_cell_volume  136.20829229988635
_cell_formula_units_Z  2
loop_
  _symmetry_equiv_pos_site_id
 _symmetry_equiv_pos_as_xyz
 1  'x, y, z'
loop_
 _atom_site_type_symbol
 _atom_site_label
 _atom_site_symmetry_multiplicity
 _atom_site_fract_x
 _atom_site_fract_y
 _atom_site_fract_z
 _atom_site_fract_occupancy
 Ce  Ce1  1  0.56517  0.56517  0.66472  1
 Ce  Ce2  1  0.43483  0.43483  0.33528  1
 Rh  Rh1  1  0.16524  0.16524  0.31058  1
 Rh  Rh2  1  0.83476  0.83476  0.68942  1
 Sb  Sb1  1  0.83429  0.83429  0.08003  1
 Sb  Sb2  1  0.16571  0.16571  0.91997  1
