CIF file written using JARVIS-Tools package.
data_TaSbO4
_symmetry_space_group_name_H-M  'I-4m2'
_cell_length_a       6.32722
_cell_length_b       6.32722
_cell_length_c       6.32722
_cell_angle_alpha    143.05
_cell_angle_beta     143.05
_cell_angle_gamma    53.2494

_symmetry_Int_Tables_number  119
_chemical_formula_structural  TaSbO4
_chemical_formula_sum  TaSbO4
_cell_volume  90.95448683653323
_cell_formula_units_Z  1
loop_
  _symmetry_equiv_pos_site_id
 _symmetry_equiv_pos_as_xyz
 1  'x, y, z'
loop_
 _atom_site_type_symbol
 _atom_site_label
 _atom_site_symmetry_multiplicity
 _atom_site_fract_x
 _atom_site_fract_y
 _atom_site_fract_z
 _atom_site_fract_occupancy
 O  O1  1  0.52353  0.02353  0.50000  1
 O  O2  1  0.17664  0.17664  -0.00000  1
 O  O3  1  0.97648  0.47647  0.50000  1
 O  O4  1  0.82336  0.82336  -0.00000  1
 Sb  Sb1  1  0.75000  0.25000  0.50000  1
 Ta  Ta1  1  0.00000  0.00000  0.00000  1
