CIF file written using JARVIS-Tools package.
data_TaSbO4
_symmetry_space_group_name_H-M  'Cmmm'
_cell_length_a       5.05378
_cell_length_b       5.05378
_cell_length_c       3.21902
_cell_angle_alpha    90
_cell_angle_beta     90
_cell_angle_gamma    88.9405

_symmetry_Int_Tables_number  65
_chemical_formula_structural  TaSbO4
_chemical_formula_sum  TaSbO4
_cell_volume  82.20200782954942
_cell_formula_units_Z  1
loop_
  _symmetry_equiv_pos_site_id
 _symmetry_equiv_pos_as_xyz
 1  'x, y, z'
loop_
 _atom_site_type_symbol
 _atom_site_label
 _atom_site_symmetry_multiplicity
 _atom_site_fract_x
 _atom_site_fract_y
 _atom_site_fract_z
 _atom_site_fract_occupancy
 O  O1  1  0.32234  0.32234  0.00000  1
 O  O2  1  0.22264  0.77736  0.50000  1
 O  O3  1  0.77736  0.22264  0.50000  1
 O  O4  1  0.67765  0.67765  0.00000  1
 Sb  Sb1  1  0.00000  0.00000  0.00000  1
 Ta  Ta1  1  0.50000  0.50000  0.50000  1
