CIF file written using JARVIS-Tools package.
data_BaDy2Se4
_symmetry_space_group_name_H-M  'Pnma'
_cell_length_a       4.19746
_cell_length_b       12.7987
_cell_length_c       15.1662
_cell_angle_alpha    90
_cell_angle_beta     90
_cell_angle_gamma    90

_symmetry_Int_Tables_number  62
_chemical_formula_structural  BaDy2Se4
_chemical_formula_sum  Ba4Dy8Se6
_cell_volume  814.7605531049403
_cell_formula_units_Z  4
loop_
  _symmetry_equiv_pos_site_id
 _symmetry_equiv_pos_as_xyz
 1  'x, y, z'
loop_
 _atom_site_type_symbol
 _atom_site_label
 _atom_site_symmetry_multiplicity
 _atom_site_fract_x
 _atom_site_fract_y
 _atom_site_fract_z
 _atom_site_fract_occupancy
 Ba  Ba1  1  0.25000  0.75937  0.33494  1
 Ba  Ba2  1  0.25000  0.25937  0.16506  1
 Ba  Ba3  1  0.75000  0.24063  0.66506  1
 Ba  Ba4  1  0.75000  0.74063  0.83494  1
 Dy  Dy1  1  0.75000  0.06482  0.89165  1
 Dy  Dy2  1  0.25000  0.43518  0.39165  1
 Dy  Dy3  1  0.75000  0.56482  0.60835  1
 Dy  Dy4  1  0.25000  0.93518  0.10835  1
 Dy  Dy5  1  0.25000  0.42091  0.90034  1
 Dy  Dy6  1  0.75000  0.57909  0.09966  1
 Dy  Dy7  1  0.75000  0.07909  0.40034  1
 Dy  Dy8  1  0.25000  0.92091  0.59966  1
 Se  Se1  1  0.25000  0.62668  0.97486  1
 Se  Se2  1  0.25000  0.20661  0.83747  1
 Se  Se3  1  0.75000  0.58539  0.42267  1
 Se  Se4  1  0.75000  0.79339  0.16253  1
 Se  Se5  1  0.75000  0.29339  0.33747  1
 Se  Se6  1  0.25000  0.12668  0.52514  1
 Se  Se7  1  0.25000  0.70661  0.66253  1
 Se  Se8  1  0.25000  0.91461  0.92267  1
 Se  Se9  1  0.25000  0.02396  0.28310  1
 Se  Se10  1  0.75000  0.47604  0.78310  1
 Se  Se11  1  0.75000  0.97604  0.71690  1
 Se  Se12  1  0.25000  0.41461  0.57733  1
 Se  Se13  1  0.75000  0.87332  0.47486  1
 Se  Se14  1  0.25000  0.52396  0.21690  1
 Se  Se15  1  0.75000  0.37332  0.02514  1
 Se  Se16  1  0.75000  0.08539  0.07733  1
