CIF file written using JARVIS-Tools package.
data_TiAg2I6O18
_symmetry_space_group_name_H-M  'R-3'
_cell_length_a       7.30954
_cell_length_b       7.30954
_cell_length_c       7.30953
_cell_angle_alpha    96.2661
_cell_angle_beta     96.2661
_cell_angle_gamma    96.2661

_symmetry_Int_Tables_number  148
_chemical_formula_structural  TiAg2I6O18
_chemical_formula_sum  TiAg2I6O8
_cell_volume  382.98359837814274
_cell_formula_units_Z  1
loop_
  _symmetry_equiv_pos_site_id
 _symmetry_equiv_pos_as_xyz
 1  'x, y, z'
loop_
 _atom_site_type_symbol
 _atom_site_label
 _atom_site_symmetry_multiplicity
 _atom_site_fract_x
 _atom_site_fract_y
 _atom_site_fract_z
 _atom_site_fract_occupancy
 Ag  Ag1  1  0.68262  0.68262  0.68262  1
 Ag  Ag2  1  0.31738  0.31738  0.31738  1
 I  I1  1  0.83779  0.22033  0.61930  1
 I  I2  1  0.38070  0.16221  0.77967  1
 I  I3  1  0.77967  0.38070  0.16221  1
 I  I4  1  0.16221  0.77967  0.38070  1
 I  I5  1  0.61930  0.83779  0.22033  1
 I  I6  1  0.22033  0.61930  0.83779  1
 O  O1  1  0.18855  0.93575  0.18753  1
 O  O2  1  0.44647  0.41699  0.81024  1
 O  O3  1  0.93575  0.18753  0.18855  1
 O  O4  1  0.18976  0.55353  0.58301  1
 O  O5  1  0.81247  0.81145  0.06425  1
 O  O6  1  0.06425  0.81247  0.81145  1
 O  O7  1  0.43257  0.78846  0.87062  1
 O  O8  1  0.81145  0.06425  0.81247  1
 O  O9  1  0.18753  0.18855  0.93575  1
 O  O10  1  0.41699  0.81024  0.44647  1
 O  O11  1  0.21154  0.12938  0.56743  1
 O  O12  1  0.12938  0.56743  0.21154  1
 O  O13  1  0.78846  0.87062  0.43257  1
 O  O14  1  0.55353  0.58301  0.18976  1
 O  O15  1  0.58301  0.18976  0.55353  1
 O  O16  1  0.81024  0.44647  0.41699  1
 O  O17  1  0.56743  0.21154  0.12938  1
 O  O18  1  0.87062  0.43257  0.78846  1
 Ti  Ti1  1  0.00000  0.00000  0.00000  1
