CIF file written using JARVIS-Tools package.
data_CoNiN
_symmetry_space_group_name_H-M  'Amm2'
_cell_length_a       2.87738
_cell_length_b       3.64897
_cell_length_c       3.65395
_cell_angle_alpha    90
_cell_angle_beta     90
_cell_angle_gamma    129.375

_symmetry_Int_Tables_number  38
_chemical_formula_structural  CoNiN
_chemical_formula_sum  CoNiN
_cell_volume  29.65610472069642
_cell_formula_units_Z  1
loop_
  _symmetry_equiv_pos_site_id
 _symmetry_equiv_pos_as_xyz
 1  'x, y, z'
loop_
 _atom_site_type_symbol
 _atom_site_label
 _atom_site_symmetry_multiplicity
 _atom_site_fract_x
 _atom_site_fract_y
 _atom_site_fract_z
 _atom_site_fract_occupancy
 Co  Co1  1  0.86298  0.93155  0.50000  1
 N  N1  1  0.68510  0.34260  0.50000  1
 Ni  Ni1  1  0.78525  0.39265  0.00000  1
