CIF file written using JARVIS-Tools package.
data_TaSbO4
_symmetry_space_group_name_H-M  'P2/m'
_cell_length_a       4.58824
_cell_length_b       3.26352
_cell_length_c       6.01488
_cell_angle_alpha    90
_cell_angle_beta     117.507
_cell_angle_gamma    90

_symmetry_Int_Tables_number  10
_chemical_formula_structural  TaSbO4
_chemical_formula_sum  TaSbO4
_cell_volume  79.88444912337468
_cell_formula_units_Z  1
loop_
  _symmetry_equiv_pos_site_id
 _symmetry_equiv_pos_as_xyz
 1  'x, y, z'
loop_
 _atom_site_type_symbol
 _atom_site_label
 _atom_site_symmetry_multiplicity
 _atom_site_fract_x
 _atom_site_fract_y
 _atom_site_fract_z
 _atom_site_fract_occupancy
 O  O1  1  0.75132  0.00000  0.21833  1
 O  O2  1  0.71672  0.50000  0.78303  1
 O  O3  1  0.24868  0.00000  0.78167  1
 O  O4  1  0.28328  0.50000  0.21697  1
 Sb  Sb1  1  0.50000  0.00000  0.50000  1
 Ta  Ta1  1  0.50000  0.50000  -0.00000  1
