CIF file written using JARVIS-Tools package.
data_VAgOF4
_symmetry_space_group_name_H-M  'P2_1/c'
_cell_length_a       4.89177
_cell_length_b       5.45767
_cell_length_c       13.7548
_cell_angle_alpha    80.3104
_cell_angle_beta     90
_cell_angle_gamma    90

_symmetry_Int_Tables_number  14
_chemical_formula_structural  VAgOF4
_chemical_formula_sum  V4Ag4O4F6
_cell_volume  361.9811221213121
_cell_formula_units_Z  4
loop_
  _symmetry_equiv_pos_site_id
 _symmetry_equiv_pos_as_xyz
 1  'x, y, z'
loop_
 _atom_site_type_symbol
 _atom_site_label
 _atom_site_symmetry_multiplicity
 _atom_site_fract_x
 _atom_site_fract_y
 _atom_site_fract_z
 _atom_site_fract_occupancy
 Ag  Ag1  1  0.54088  0.66980  0.09111  1
 Ag  Ag2  1  0.04088  0.33020  0.40889  1
 Ag  Ag3  1  0.45912  0.33020  0.90889  1
 Ag  Ag4  1  -0.04088  0.66980  0.59111  1
 F  F1  1  0.23255  0.11980  0.24999  1
 F  F2  1  0.11797  0.85618  0.11903  1
 F  F3  1  0.76745  0.88020  0.75001  1
 F  F4  1  0.88203  0.14382  0.88097  1
 F  F5  1  0.38203  0.85618  0.61903  1
 F  F6  1  0.81884  0.38778  0.19645  1
 F  F7  1  0.31884  0.61222  0.30355  1
 F  F8  1  0.61797  0.14382  0.38097  1
 F  F9  1  0.68116  0.38778  0.69645  1
 F  F10  1  0.70680  0.12088  0.06759  1
 F  F11  1  0.20680  0.87912  0.43241  1
 F  F12  1  0.26745  0.11980  0.74999  1
 F  F13  1  0.79320  0.12088  0.56759  1
 F  F14  1  0.18116  0.61222  0.80355  1
 F  F15  1  0.73255  0.88020  0.25001  1
 F  F16  1  0.29320  0.87912  0.93241  1
 O  O1  1  0.20133  0.34584  0.06046  1
 O  O2  1  0.70133  0.65416  0.43954  1
 O  O3  1  0.79867  0.65416  0.93954  1
 O  O4  1  0.29867  0.34584  0.56046  1
 V  V1  1  0.48544  0.16341  0.63988  1
 V  V2  1  -0.01456  0.83659  0.86012  1
 V  V3  1  0.51456  0.83659  0.36012  1
 V  V4  1  0.01456  0.16341  0.13988  1
