CIF file written using JARVIS-Tools package.
data_YbMn28
_symmetry_space_group_name_H-M  'I-43m'
_cell_length_a       7.46529
_cell_length_b       7.46529
_cell_length_c       7.46529
_cell_angle_alpha    109.471
_cell_angle_beta     109.471
_cell_angle_gamma    109.471

_symmetry_Int_Tables_number  217
_chemical_formula_structural  YbMn28
_chemical_formula_sum  YbMn28
_cell_volume  320.271644426577
_cell_formula_units_Z  1
loop_
  _symmetry_equiv_pos_site_id
 _symmetry_equiv_pos_as_xyz
 1  'x, y, z'
loop_
 _atom_site_type_symbol
 _atom_site_label
 _atom_site_symmetry_multiplicity
 _atom_site_fract_x
 _atom_site_fract_y
 _atom_site_fract_z
 _atom_site_fract_occupancy
 Mn  Mn1  1  0.60649  0.60649  0.28696  1
 Mn  Mn2  1  0.62341  0.00000  0.00000  1
 Mn  Mn3  1  0.00000  0.62341  0.00000  1
 Mn  Mn4  1  0.00000  0.00000  0.62341  1
 Mn  Mn5  1  0.37659  0.37659  0.37659  1
 Mn  Mn6  1  0.39351  0.68047  -0.00000  1
 Mn  Mn7  1  0.71304  0.31953  0.31953  1
 Mn  Mn8  1  0.39351  -0.00000  0.68047  1
 Mn  Mn9  1  0.68047  0.39351  -0.00000  1
 Mn  Mn10  1  -0.00000  0.39351  0.68047  1
 Mn  Mn11  1  0.31953  0.71304  0.31953  1
 Mn  Mn12  1  0.31953  0.31953  0.71304  1
 Mn  Mn13  1  -0.00000  0.68047  0.39351  1
 Mn  Mn14  1  0.68047  -0.00000  0.39351  1
 Mn  Mn15  1  0.62366  0.82200  0.62366  1
 Mn  Mn16  1  0.28696  0.60649  0.60649  1
 Mn  Mn17  1  0.60649  0.28696  0.60649  1
 Mn  Mn18  1  0.37634  0.19834  0.00000  1
 Mn  Mn19  1  0.17800  0.80166  0.80166  1
 Mn  Mn20  1  0.37634  0.00000  0.19834  1
 Mn  Mn21  1  0.19834  0.37634  0.00000  1
 Mn  Mn22  1  0.00000  0.37634  0.19834  1
 Mn  Mn23  1  0.80166  0.17800  0.80166  1
 Mn  Mn24  1  0.80166  0.80166  0.17800  1
 Mn  Mn25  1  0.00000  0.19834  0.37634  1
 Mn  Mn26  1  0.19834  0.00000  0.37634  1
 Mn  Mn27  1  0.62366  0.62366  0.82200  1
 Mn  Mn28  1  0.82200  0.62366  0.62366  1
 Yb  Yb1  1  0.00000  0.00000  0.00000  1
