CIF file written using JARVIS-Tools package.
data_TaSbO4
_symmetry_space_group_name_H-M  'Cm'
_cell_length_a       6.18626
_cell_length_b       6.18626
_cell_length_c       4.01295
_cell_angle_alpha    93.5249
_cell_angle_beta     93.5249
_cell_angle_gamma    36.7341

_symmetry_Int_Tables_number  8
_chemical_formula_structural  TaSbO4
_chemical_formula_sum  TaSbO4
_cell_volume  91.66070415246126
_cell_formula_units_Z  1
loop_
  _symmetry_equiv_pos_site_id
 _symmetry_equiv_pos_as_xyz
 1  'x, y, z'
loop_
 _atom_site_type_symbol
 _atom_site_label
 _atom_site_symmetry_multiplicity
 _atom_site_fract_x
 _atom_site_fract_y
 _atom_site_fract_z
 _atom_site_fract_occupancy
 O  O1  1  0.00360  0.00360  0.51498  1
 O  O2  1  0.82578  0.82578  0.93006  1
 O  O3  1  0.16476  0.16476  0.03668  1
 O  O4  1  0.46218  0.46218  0.99396  1
 Sb  Sb1  1  0.29078  0.29078  0.72108  1
 Ta  Ta1  1  0.00237  0.00237  0.05324  1
