CIF file written using JARVIS-Tools package.
data_MnCu2Cl4
_symmetry_space_group_name_H-M  'Amm2'
_cell_length_a       6.3438
_cell_length_b       6.3438
_cell_length_c       3.84306
_cell_angle_alpha    90
_cell_angle_beta     90
_cell_angle_gamma    112.977

_symmetry_Int_Tables_number  38
_chemical_formula_structural  MnCu2Cl4
_chemical_formula_sum  MnCu2Cl4
_cell_volume  142.38894462617776
_cell_formula_units_Z  1
loop_
  _symmetry_equiv_pos_site_id
 _symmetry_equiv_pos_as_xyz
 1  'x, y, z'
loop_
 _atom_site_type_symbol
 _atom_site_label
 _atom_site_symmetry_multiplicity
 _atom_site_fract_x
 _atom_site_fract_y
 _atom_site_fract_z
 _atom_site_fract_occupancy
 Cl  Cl1  1  0.00013  0.46209  0.00000  1
 Cl  Cl2  1  0.47367  0.47367  0.50000  1
 Cl  Cl3  1  -0.02401  -0.02401  0.50000  1
 Cl  Cl4  1  0.46209  0.00013  0.00000  1
 Cu  Cu1  1  0.87508  0.56171  0.50000  1
 Cu  Cu2  1  0.56171  0.87508  0.50000  1
 Mn  Mn1  1  0.22133  0.22133  0.00000  1
