CIF file written using JARVIS-Tools package.
data_NbFeF6
_symmetry_space_group_name_H-M  'R-3'
_cell_length_a       5.64922
_cell_length_b       5.64923
_cell_length_c       5.64923
_cell_angle_alpha    54.2274
_cell_angle_beta     54.2274
_cell_angle_gamma    54.2274

_symmetry_Int_Tables_number  148
_chemical_formula_structural  NbFeF6
_chemical_formula_sum  NbFeF6
_cell_volume  110.30854148580595
_cell_formula_units_Z  1
loop_
  _symmetry_equiv_pos_site_id
 _symmetry_equiv_pos_as_xyz
 1  'x, y, z'
loop_
 _atom_site_type_symbol
 _atom_site_label
 _atom_site_symmetry_multiplicity
 _atom_site_fract_x
 _atom_site_fract_y
 _atom_site_fract_z
 _atom_site_fract_occupancy
 F  F1  1  0.12020  0.38358  0.74884  1
 F  F2  1  0.38358  0.74884  0.12020  1
 F  F3  1  0.74884  0.12020  0.38358  1
 F  F4  1  0.87980  0.61642  0.25116  1
 F  F5  1  0.61642  0.25116  0.87980  1
 F  F6  1  0.25116  0.87980  0.61642  1
 Fe  Fe1  1  0.00000  0.00000  0.00000  1
 Nb  Nb1  1  0.50000  0.50000  0.50000  1
