CIF file written using JARVIS-Tools package.
data_MnH2O2
_symmetry_space_group_name_H-M  'P-3m1'
_cell_length_a       3.33064
_cell_length_b       3.3299
_cell_length_c       4.62205
_cell_angle_alpha    90.0251
_cell_angle_beta     90.0078
_cell_angle_gamma    119.998

_symmetry_Int_Tables_number  164
_chemical_formula_structural  MnH2O2
_chemical_formula_sum  MnH2O2
_cell_volume  44.394689815755754
_cell_formula_units_Z  1
loop_
  _symmetry_equiv_pos_site_id
 _symmetry_equiv_pos_as_xyz
 1  'x, y, z'
loop_
 _atom_site_type_symbol
 _atom_site_label
 _atom_site_symmetry_multiplicity
 _atom_site_fract_x
 _atom_site_fract_y
 _atom_site_fract_z
 _atom_site_fract_occupancy
 H  H1  1  0.42096  0.67922  0.53458  1
 H  H2  1  0.75455  0.34606  0.42125  1
 Mn  Mn1  1  0.08772  0.01241  0.97793  1
 O  O1  1  0.42087  0.67878  0.74600  1
 O  O2  1  0.75454  0.34605  0.20984  1
