CIF file written using JARVIS-Tools package.
data_YGeRh2
_symmetry_space_group_name_H-M  'P6_3/mmc'
_cell_length_a       5.55311
_cell_length_b       5.55311
_cell_length_c       15.6271
_cell_angle_alpha    90
_cell_angle_beta     90
_cell_angle_gamma    120

_symmetry_Int_Tables_number  194
_chemical_formula_structural  YGeRh2
_chemical_formula_sum  Y6Ge6Rh2
_cell_volume  417.33049328218726
_cell_formula_units_Z  6
loop_
  _symmetry_equiv_pos_site_id
 _symmetry_equiv_pos_as_xyz
 1  'x, y, z'
loop_
 _atom_site_type_symbol
 _atom_site_label
 _atom_site_symmetry_multiplicity
 _atom_site_fract_x
 _atom_site_fract_y
 _atom_site_fract_z
 _atom_site_fract_occupancy
 Ge  Ge1  1  0.33333  0.66667  0.25000  1
 Ge  Ge2  1  0.00000  0.00000  0.00000  1
 Ge  Ge3  1  0.66667  0.33333  0.75000  1
 Ge  Ge4  1  0.00000  0.00000  0.50000  1
 Ge  Ge5  1  0.00000  0.00000  0.75000  1
 Ge  Ge6  1  0.00000  0.00000  0.25000  1
 Rh  Rh1  1  0.83189  0.16811  0.87258  1
 Rh  Rh2  1  0.33621  0.16811  0.62742  1
 Rh  Rh3  1  0.16811  0.83189  0.12742  1
 Rh  Rh4  1  0.16811  0.33621  0.37258  1
 Rh  Rh5  1  0.33621  0.16811  0.87258  1
 Rh  Rh6  1  0.83189  0.66379  0.62742  1
 Rh  Rh7  1  0.66379  0.83189  0.12742  1
 Rh  Rh8  1  0.83189  0.66379  0.87258  1
 Rh  Rh9  1  0.16811  0.83189  0.37258  1
 Rh  Rh10  1  0.83189  0.16811  0.62742  1
 Rh  Rh11  1  0.66379  0.83189  0.37258  1
 Rh  Rh12  1  0.16811  0.33621  0.12742  1
 Y  Y1  1  0.66667  0.33333  0.25000  1
 Y  Y2  1  0.33333  0.66667  0.75000  1
 Y  Y3  1  0.33333  0.66667  0.96160  1
 Y  Y4  1  0.66667  0.33333  0.03840  1
 Y  Y5  1  0.66667  0.33333  0.46160  1
 Y  Y6  1  0.33333  0.66667  0.53840  1
