CIF file written using JARVIS-Tools package.
data_Li2VCrO4
_symmetry_space_group_name_H-M  'C2/m'
_cell_length_a       2.89436
_cell_length_b       5.14342
_cell_length_c       4.93637
_cell_angle_alpha    81.1212
_cell_angle_beta     90.0001
_cell_angle_gamma    73.6575

_symmetry_Int_Tables_number  12
_chemical_formula_structural  Li2VCrO4
_chemical_formula_sum  Li2VCrO4
_cell_volume  69.60003913761916
_cell_formula_units_Z  1
loop_
  _symmetry_equiv_pos_site_id
 _symmetry_equiv_pos_as_xyz
 1  'x, y, z'
loop_
 _atom_site_type_symbol
 _atom_site_label
 _atom_site_symmetry_multiplicity
 _atom_site_fract_x
 _atom_site_fract_y
 _atom_site_fract_z
 _atom_site_fract_occupancy
 Cr  Cr1  1  0.25000  0.50000  0.75000  1
 Li  Li1  1  0.50061  0.99877  0.50424  1
 Li  Li2  1  0.99939  0.00123  0.99576  1
 O  O1  1  0.13241  0.73518  0.37585  1
 O  O2  1  0.36759  0.26482  0.12415  1
 O  O3  1  0.63358  0.73282  0.87158  1
 O  O4  1  0.86642  0.26718  0.62842  1
 V  V1  1  0.75000  0.50000  0.25000  1
