CIF file written using JARVIS-Tools package.
data_Sr2TiO3
_symmetry_space_group_name_H-M  'I4/mmm'
_cell_length_a       7.71211
_cell_length_b       7.71211
_cell_length_c       7.71211
_cell_angle_alpha    153.776
_cell_angle_beta     153.776
_cell_angle_gamma    37.4252

_symmetry_Int_Tables_number  139
_chemical_formula_structural  Sr2TiO3
_chemical_formula_sum  Sr2TiO3
_cell_volume  89.43164169973139
_cell_formula_units_Z  1
loop_
  _symmetry_equiv_pos_site_id
 _symmetry_equiv_pos_as_xyz
 1  'x, y, z'
loop_
 _atom_site_type_symbol
 _atom_site_label
 _atom_site_symmetry_multiplicity
 _atom_site_fract_x
 _atom_site_fract_y
 _atom_site_fract_z
 _atom_site_fract_occupancy
 O  O1  1  0.50000  0.50000  -0.00000  1
 O  O2  1  0.14927  0.14927  -0.00000  1
 O  O3  1  0.85073  0.85073  0.00000  1
 Sr  Sr1  1  0.66093  0.66093  0.00000  1
 Sr  Sr2  1  0.33907  0.33907  0.00000  1
 Ti  Ti1  1  0.00000  0.00000  0.00000  1
