CIF file written using JARVIS-Tools package.
data_Y2Ga9Ir3
_symmetry_space_group_name_H-M  'Cmcm'
_cell_length_a       7.5727
_cell_length_b       7.5727
_cell_length_c       9.51749
_cell_angle_alpha    90
_cell_angle_beta     90
_cell_angle_gamma    119.864

_symmetry_Int_Tables_number  63
_chemical_formula_structural  Y2Ga9Ir3
_chemical_formula_sum  Y4Ga8Ir6
_cell_volume  473.31166671300815
_cell_formula_units_Z  2
loop_
  _symmetry_equiv_pos_site_id
 _symmetry_equiv_pos_as_xyz
 1  'x, y, z'
loop_
 _atom_site_type_symbol
 _atom_site_label
 _atom_site_symmetry_multiplicity
 _atom_site_fract_x
 _atom_site_fract_y
 _atom_site_fract_z
 _atom_site_fract_occupancy
 Ga  Ga1  1  0.66543  0.00094  0.58082  1
 Ga  Ga2  1  0.87096  0.87096  0.75000  1
 Ga  Ga3  1  0.99906  0.33457  0.08082  1
 Ga  Ga4  1  0.00094  0.66543  0.91918  1
 Ga  Ga5  1  0.00094  0.66543  0.58082  1
 Ga  Ga6  1  0.33457  0.99906  0.41918  1
 Ga  Ga7  1  0.99906  0.33457  0.41918  1
 Ga  Ga8  1  0.33457  0.99906  0.08082  1
 Ga  Ga9  1  0.33204  0.33204  0.56764  1
 Ga  Ga10  1  0.12904  0.12904  0.25000  1
 Ga  Ga11  1  0.66796  0.66796  0.43236  1
 Ga  Ga12  1  0.33204  0.33204  0.93236  1
 Ga  Ga13  1  0.33890  0.54638  0.25000  1
 Ga  Ga14  1  0.66110  0.45362  0.75000  1
 Ga  Ga15  1  0.54638  0.33890  0.25000  1
 Ga  Ga16  1  0.45362  0.66110  0.75000  1
 Ga  Ga17  1  0.66796  0.66796  0.06764  1
 Ga  Ga18  1  0.66543  0.00094  0.91918  1
 Ir  Ir1  1  0.00000  0.00000  0.00000  1
 Ir  Ir2  1  0.67107  0.32893  0.00000  1
 Ir  Ir3  1  0.32893  0.67107  0.00000  1
 Ir  Ir4  1  0.32893  0.67107  0.50000  1
 Ir  Ir5  1  0.00000  0.00000  0.50000  1
 Ir  Ir6  1  0.67107  0.32893  0.50000  1
 Y  Y1  1  0.33067  0.00273  0.75000  1
 Y  Y2  1  0.66933  0.99727  0.25000  1
 Y  Y3  1  0.00273  0.33067  0.75000  1
 Y  Y4  1  0.99727  0.66933  0.25000  1
