CIF file written using JARVIS-Tools package.
data_Tb3Ge4
_symmetry_space_group_name_H-M  'Cmcm'
_cell_length_a       5.7287
_cell_length_b       5.7287
_cell_length_c       14.3248
_cell_angle_alpha    90
_cell_angle_beta     90
_cell_angle_gamma    138.201

_symmetry_Int_Tables_number  63
_chemical_formula_structural  Tb3Ge4
_chemical_formula_sum  Tb6Ge8
_cell_volume  313.3376998824338
_cell_formula_units_Z  2
loop_
  _symmetry_equiv_pos_site_id
 _symmetry_equiv_pos_as_xyz
 1  'x, y, z'
loop_
 _atom_site_type_symbol
 _atom_site_label
 _atom_site_symmetry_multiplicity
 _atom_site_fract_x
 _atom_site_fract_y
 _atom_site_fract_z
 _atom_site_fract_occupancy
 Ge  Ge1  1  0.37990  0.62010  0.10911  1
 Ge  Ge2  1  0.62010  0.37990  0.89089  1
 Ge  Ge3  1  0.62010  0.37990  0.60911  1
 Ge  Ge4  1  0.37990  0.62010  0.39089  1
 Ge  Ge5  1  0.22490  0.77510  0.25000  1
 Ge  Ge6  1  0.77510  0.22490  0.75000  1
 Ge  Ge7  1  0.00000  0.00000  0.00000  1
 Ge  Ge8  1  0.00000  0.00000  0.50000  1
 Tb  Tb1  1  0.66956  0.33044  0.09658  1
 Tb  Tb2  1  0.33044  0.66956  0.90342  1
 Tb  Tb3  1  0.33044  0.66956  0.59658  1
 Tb  Tb4  1  0.66956  0.33044  0.40342  1
 Tb  Tb5  1  0.95387  0.04613  0.25000  1
 Tb  Tb6  1  0.04613  0.95387  0.75000  1
