CIF file written using JARVIS-Tools package.
data_Ni3Ag
_symmetry_space_group_name_H-M  'I4/mmm'
_cell_length_a       4.49675
_cell_length_b       4.49676
_cell_length_c       4.49676
_cell_angle_alpha    131.753
_cell_angle_beta     131.753
_cell_angle_gamma    70.6189

_symmetry_Int_Tables_number  139
_chemical_formula_structural  Ni3Ag
_chemical_formula_sum  Ni3Ag
_cell_volume  49.57754275543699
_cell_formula_units_Z  1
loop_
  _symmetry_equiv_pos_site_id
 _symmetry_equiv_pos_as_xyz
 1  'x, y, z'
loop_
 _atom_site_type_symbol
 _atom_site_label
 _atom_site_symmetry_multiplicity
 _atom_site_fract_x
 _atom_site_fract_y
 _atom_site_fract_z
 _atom_site_fract_occupancy
 Ag  Ag1  1  0.00000  0.00000  0.00000  1
 Ni  Ni1  1  0.75000  0.25000  0.50000  1
 Ni  Ni2  1  0.25000  0.75000  0.50000  1
 Ni  Ni3  1  0.50000  0.50000  -0.00000  1
