CIF file written using JARVIS-Tools package.
data_LiNiO2
_symmetry_space_group_name_H-M  'C2/m'
_cell_length_a       2.87729
_cell_length_b       2.8864
_cell_length_c       9.49892
_cell_angle_alpha    81.4171
_cell_angle_beta     90.0122
_cell_angle_gamma    60.1169

_symmetry_Int_Tables_number  12
_chemical_formula_structural  LiNiO2
_chemical_formula_sum  Li2Ni2O4
_cell_volume  67.37757692268463
_cell_formula_units_Z  2
loop_
  _symmetry_equiv_pos_site_id
 _symmetry_equiv_pos_as_xyz
 1  'x, y, z'
loop_
 _atom_site_type_symbol
 _atom_site_label
 _atom_site_symmetry_multiplicity
 _atom_site_fract_x
 _atom_site_fract_y
 _atom_site_fract_z
 _atom_site_fract_occupancy
 Li  Li1  1  0.74999  0.49999  0.24999  1
 Li  Li2  1  0.25000  0.50001  0.75001  1
 Ni  Ni1  1  0.50000  0.00000  0.50000  1
 Ni  Ni2  1  0.00000  -0.00000  0.00000  1
 O  O1  1  0.37131  0.25717  0.11215  1
 O  O2  1  0.87132  0.25716  0.61214  1
 O  O3  1  0.12868  0.74285  0.38786  1
 O  O4  1  0.62870  0.74282  0.88786  1
