CIF file written using JARVIS-Tools package.
data_Rb6Na4Tl13
_symmetry_space_group_name_H-M  'Im-3'
_cell_length_a       10.1829
_cell_length_b       10.1829
_cell_length_c       10.1829
_cell_angle_alpha    109.471
_cell_angle_beta     109.471
_cell_angle_gamma    109.471

_symmetry_Int_Tables_number  204
_chemical_formula_structural  Rb6Na4Tl13
_chemical_formula_sum  Rb6Na4Tl3
_cell_volume  812.8252128506874
_cell_formula_units_Z  1
loop_
  _symmetry_equiv_pos_site_id
 _symmetry_equiv_pos_as_xyz
 1  'x, y, z'
loop_
 _atom_site_type_symbol
 _atom_site_label
 _atom_site_symmetry_multiplicity
 _atom_site_fract_x
 _atom_site_fract_y
 _atom_site_fract_z
 _atom_site_fract_occupancy
 Na  Na1  1  0.50000  0.50000  0.50000  1
 Na  Na2  1  0.50000  0.00000  0.00000  1
 Na  Na3  1  -0.00000  0.50000  -0.00000  1
 Na  Na4  1  0.00000  0.00000  0.50000  1
 Rb  Rb1  1  0.83021  0.33021  0.50000  1
 Rb  Rb2  1  0.16979  0.66979  0.50000  1
 Rb  Rb3  1  0.33021  0.50000  0.83021  1
 Rb  Rb4  1  0.66979  0.50000  0.16979  1
 Rb  Rb5  1  0.50000  0.83021  0.33021  1
 Rb  Rb6  1  0.50000  0.16979  0.66979  1
 Tl  Tl1  1  0.85707  0.75854  0.61561  1
 Tl  Tl2  1  0.90147  0.14293  0.75854  1
 Tl  Tl3  1  0.14293  0.75854  0.90147  1
 Tl  Tl4  1  0.85707  0.24146  0.09853  1
 Tl  Tl5  1  0.75854  0.61561  0.85707  1
 Tl  Tl6  1  0.38439  0.14293  0.24146  1
 Tl  Tl7  1  0.75854  0.90147  0.14293  1
 Tl  Tl8  1  0.24146  0.09853  0.85707  1
 Tl  Tl9  1  0.61561  0.85707  0.75854  1
 Tl  Tl10  1  0.24146  0.38439  0.14293  1
 Tl  Tl11  1  0.09853  0.85707  0.24146  1
 Tl  Tl12  1  0.14293  0.24146  0.38439  1
 Tl  Tl13  1  0.00000  0.00000  0.00000  1
