CIF file written using JARVIS-Tools package.
data_Sm4CrS7
_symmetry_space_group_name_H-M  'P6_3'
_cell_length_a       9.71049
_cell_length_b       9.71049
_cell_length_c       6.75906
_cell_angle_alpha    90
_cell_angle_beta     90
_cell_angle_gamma    120

_symmetry_Int_Tables_number  173
_chemical_formula_structural  Sm4CrS7
_chemical_formula_sum  Sm8Cr2S4
_cell_volume  551.9487318078155
_cell_formula_units_Z  2
loop_
  _symmetry_equiv_pos_site_id
 _symmetry_equiv_pos_as_xyz
 1  'x, y, z'
loop_
 _atom_site_type_symbol
 _atom_site_label
 _atom_site_symmetry_multiplicity
 _atom_site_fract_x
 _atom_site_fract_y
 _atom_site_fract_z
 _atom_site_fract_occupancy
 Cr  Cr1  1  0.00000  0.00000  0.04147  1
 Cr  Cr2  1  0.00000  0.00000  0.54147  1
 S  S1  1  0.89406  0.76416  0.80948  1
 S  S2  1  0.51473  0.06882  0.45541  1
 S  S3  1  0.23584  0.12990  0.80948  1
 S  S4  1  0.48527  0.93118  0.95541  1
 S  S5  1  0.55409  0.48527  0.45541  1
 S  S6  1  0.06882  0.55409  0.95541  1
 S  S7  1  0.93118  0.44591  0.45541  1
 S  S8  1  0.33333  0.66667  0.55180  1
 S  S9  1  0.66667  0.33333  0.05180  1
 S  S10  1  0.10594  0.23584  0.30948  1
 S  S11  1  0.87010  0.10594  0.80948  1
 S  S12  1  0.44591  0.51473  0.95541  1
 S  S13  1  0.12990  0.89406  0.30948  1
 S  S14  1  0.76416  0.87010  0.30948  1
 Sm  Sm1  1  0.16221  0.37647  0.71404  1
 Sm  Sm2  1  0.21426  0.83779  0.71404  1
 Sm  Sm3  1  0.83779  0.62353  0.21404  1
 Sm  Sm4  1  0.62353  0.78574  0.71404  1
 Sm  Sm5  1  0.78574  0.16221  0.21404  1
 Sm  Sm6  1  0.37647  0.21426  0.21404  1
 Sm  Sm7  1  0.66667  0.33333  0.66595  1
 Sm  Sm8  1  0.33333  0.66667  0.16595  1
