CIF file written using JARVIS-Tools package.
data_TbNa3V2O8
_symmetry_space_group_name_H-M  'P-3m1'
_cell_length_a       5.88344
_cell_length_b       5.88344
_cell_length_c       6.90914
_cell_angle_alpha    90
_cell_angle_beta     90
_cell_angle_gamma    120

_symmetry_Int_Tables_number  164
_chemical_formula_structural  TbNa3V2O8
_chemical_formula_sum  TbNa3V2O8
_cell_volume  207.117978845185
_cell_formula_units_Z  1
loop_
  _symmetry_equiv_pos_site_id
 _symmetry_equiv_pos_as_xyz
 1  'x, y, z'
loop_
 _atom_site_type_symbol
 _atom_site_label
 _atom_site_symmetry_multiplicity
 _atom_site_fract_x
 _atom_site_fract_y
 _atom_site_fract_z
 _atom_site_fract_occupancy
 Na  Na1  1  0.33333  0.66667  0.65253  1
 Na  Na2  1  0.66667  0.33333  0.34747  1
 Na  Na3  1  0.00000  0.00000  0.00000  1
 O  O1  1  0.33333  0.66667  0.96608  1
 O  O2  1  0.66667  0.33333  0.03392  1
 O  O3  1  0.17417  0.82583  0.30258  1
 O  O4  1  0.82583  0.17417  0.69742  1
 O  O5  1  0.17417  0.34833  0.30258  1
 O  O6  1  0.82583  0.65167  0.69742  1
 O  O7  1  0.65167  0.82583  0.30258  1
 O  O8  1  0.34833  0.17417  0.69742  1
 Tb  Tb1  1  0.00000  0.00000  0.50000  1
 V  V1  1  0.33333  0.66667  0.20714  1
 V  V2  1  0.66667  0.33333  0.79286  1
