CIF file written using JARVIS-Tools package.
data_Ba2NdCoCu2O7
_symmetry_space_group_name_H-M  'Pmmm'
_cell_length_a       3.9206
_cell_length_b       3.92944
_cell_length_c       11.7808
_cell_angle_alpha    90
_cell_angle_beta     90
_cell_angle_gamma    90

_symmetry_Int_Tables_number  47
_chemical_formula_structural  Ba2NdCoCu2O7
_chemical_formula_sum  Ba2NdCoCu2O7
_cell_volume  181.4914138258718
_cell_formula_units_Z  1
loop_
  _symmetry_equiv_pos_site_id
 _symmetry_equiv_pos_as_xyz
 1  'x, y, z'
loop_
 _atom_site_type_symbol
 _atom_site_label
 _atom_site_symmetry_multiplicity
 _atom_site_fract_x
 _atom_site_fract_y
 _atom_site_fract_z
 _atom_site_fract_occupancy
 Ba  Ba1  1  0.50000  0.50000  0.18462  1
 Ba  Ba2  1  0.50000  0.50000  0.81538  1
 Co  Co1  1  0.00000  0.00000  0.00000  1
 Cu  Cu1  1  0.00000  0.00000  0.35759  1
 Cu  Cu2  1  0.00000  0.00000  0.64241  1
 Nd  Nd1  1  0.50000  0.50000  0.50000  1
 O  O1  1  0.50000  0.00000  0.36951  1
 O  O2  1  0.50000  0.00000  0.63049  1
 O  O3  1  0.00000  0.00000  0.15096  1
 O  O4  1  0.00000  0.00000  0.84904  1
 O  O5  1  0.00000  0.50000  0.37053  1
 O  O6  1  0.00000  0.50000  0.62947  1
 O  O7  1  0.00000  0.50000  0.00000  1
