CIF file written using JARVIS-Tools package.
data_LaVSb3
_symmetry_space_group_name_H-M  'Pbcm'
_cell_length_a       6.09344
_cell_length_b       6.35105
_cell_length_c       13.4512
_cell_angle_alpha    90
_cell_angle_beta     90
_cell_angle_gamma    90

_symmetry_Int_Tables_number  57
_chemical_formula_structural  LaVSb3
_chemical_formula_sum  La4V4Sb2
_cell_volume  520.5558210616751
_cell_formula_units_Z  4
loop_
  _symmetry_equiv_pos_site_id
 _symmetry_equiv_pos_as_xyz
 1  'x, y, z'
loop_
 _atom_site_type_symbol
 _atom_site_label
 _atom_site_symmetry_multiplicity
 _atom_site_fract_x
 _atom_site_fract_y
 _atom_site_fract_z
 _atom_site_fract_occupancy
 La  La1  1  0.25000  0.50299  0.30940  1
 La  La2  1  0.75000  0.49701  0.69060  1
 La  La3  1  0.25000  0.00299  0.69060  1
 La  La4  1  0.75000  0.99701  0.30940  1
 Sb  Sb1  1  0.00000  0.75000  0.50131  1
 Sb  Sb2  1  0.25000  0.50481  0.78443  1
 Sb  Sb3  1  0.50000  0.25000  0.49869  1
 Sb  Sb4  1  0.50000  0.75000  0.50131  1
 Sb  Sb5  1  0.00000  0.25000  0.49869  1
 Sb  Sb6  1  0.75000  0.39815  0.93518  1
 Sb  Sb7  1  0.25000  0.10185  0.93518  1
 Sb  Sb8  1  0.25000  0.00481  0.21557  1
 Sb  Sb9  1  0.25000  0.60185  0.06482  1
 Sb  Sb10  1  0.75000  0.99519  0.78443  1
 Sb  Sb11  1  0.75000  0.89815  0.06482  1
 Sb  Sb12  1  0.75000  0.49519  0.21557  1
 V  V1  1  0.50000  0.75000  0.90946  1
 V  V2  1  0.50000  0.25000  0.09054  1
 V  V3  1  0.00000  0.25000  0.09054  1
 V  V4  1  0.00000  0.75000  0.90946  1
