CIF file written using JARVIS-Tools package.
data_HAuO2
_symmetry_space_group_name_H-M  'C2/m'
_cell_length_a       3.46472
_cell_length_b       3.46472
_cell_length_c       6.53906
_cell_angle_alpha    131.446
_cell_angle_beta     131.446
_cell_angle_gamma    53.5591

_symmetry_Int_Tables_number  12
_chemical_formula_structural  HAuO2
_chemical_formula_sum  HAuO2
_cell_volume  42.37357188398436
_cell_formula_units_Z  1
loop_
  _symmetry_equiv_pos_site_id
 _symmetry_equiv_pos_as_xyz
 1  'x, y, z'
loop_
 _atom_site_type_symbol
 _atom_site_label
 _atom_site_symmetry_multiplicity
 _atom_site_fract_x
 _atom_site_fract_y
 _atom_site_fract_z
 _atom_site_fract_occupancy
 Au  Au1  1  0.50000  0.50000  0.00000  1
 H  H1  1  0.50000  0.50000  0.50000  1
 O  O1  1  0.20782  0.20782  0.29434  1
 O  O2  1  0.79217  0.79217  0.70566  1
