CIF file written using JARVIS-Tools package.
data_Dy6InCo2
_symmetry_space_group_name_H-M  'Immm'
_cell_length_a       8.30162
_cell_length_b       8.30162
_cell_length_c       8.30163
_cell_angle_alpha    112.395
_cell_angle_beta     109.33
_cell_angle_gamma    106.738

_symmetry_Int_Tables_number  71
_chemical_formula_structural  Dy6InCo2
_chemical_formula_sum  Dy2In2Co4
_cell_volume  439.3416725056928
_cell_formula_units_Z  2
loop_
  _symmetry_equiv_pos_site_id
 _symmetry_equiv_pos_as_xyz
 1  'x, y, z'
loop_
 _atom_site_type_symbol
 _atom_site_label
 _atom_site_symmetry_multiplicity
 _atom_site_fract_x
 _atom_site_fract_y
 _atom_site_fract_z
 _atom_site_fract_occupancy
 Co  Co1  1  0.88615  0.38615  0.50000  1
 Co  Co2  1  0.34111  -0.00000  0.34111  1
 Co  Co3  1  0.11385  0.61385  0.50000  1
 Co  Co4  1  0.65889  0.00000  0.65889  1
 Dy  Dy1  1  0.81511  0.71434  0.52944  1
 Dy  Dy2  1  0.55767  0.76387  0.79380  1
 Dy  Dy3  1  0.02993  0.23613  0.79380  1
 Dy  Dy4  1  0.44233  0.23613  0.20620  1
 Dy  Dy5  1  0.32348  0.63516  0.31167  1
 Dy  Dy6  1  0.18489  0.71434  0.89923  1
 Dy  Dy7  1  0.81511  0.28566  0.10077  1
 Dy  Dy8  1  0.67652  0.36484  0.68833  1
 Dy  Dy9  1  0.32348  0.01181  0.68833  1
 Dy  Dy10  1  0.67652  0.98819  0.31167  1
 Dy  Dy11  1  0.18489  0.28566  0.47056  1
 Dy  Dy12  1  0.97007  0.76387  0.20620  1
 In  In1  1  0.50000  0.50000  -0.00000  1
 In  In2  1  0.00000  0.00000  0.00000  1
