CIF file written using JARVIS-Tools package.
data_TiNb2ZnO8
_symmetry_space_group_name_H-M  'P2'
_cell_length_a       5.75666
_cell_length_b       4.74184
_cell_length_c       5.00912
_cell_angle_alpha    88.377
_cell_angle_beta     90
_cell_angle_gamma    90

_symmetry_Int_Tables_number  3
_chemical_formula_structural  TiNb2ZnO8
_chemical_formula_sum  TiNb2ZnO8
_cell_volume  136.68030099620134
_cell_formula_units_Z  1
loop_
  _symmetry_equiv_pos_site_id
 _symmetry_equiv_pos_as_xyz
 1  'x, y, z'
loop_
 _atom_site_type_symbol
 _atom_site_label
 _atom_site_symmetry_multiplicity
 _atom_site_fract_x
 _atom_site_fract_y
 _atom_site_fract_z
 _atom_site_fract_occupancy
 Nb  Nb1  1  0.80860  0.50000  0.00000  1
 Nb  Nb2  1  0.31451  0.00000  0.00000  1
 O  O1  1  0.90103  0.28921  0.68429  1
 O  O2  1  0.60882  0.22469  0.16115  1
 O  O3  1  0.60882  0.77531  0.83885  1
 O  O4  1  0.90103  0.71079  0.31571  1
 O  O5  1  0.11755  0.73608  0.81838  1
 O  O6  1  0.37547  0.75451  0.32083  1
 O  O7  1  0.37547  0.24549  0.67917  1
 O  O8  1  0.11755  0.26392  0.18162  1
 Ti  Ti1  1  0.17062  0.50000  0.50000  1
 Zn  Zn1  1  0.70052  -0.00000  0.50000  1
