CIF file written using JARVIS-Tools package.
data_VBi2
_symmetry_space_group_name_H-M  'C2/m'
_cell_length_a       5.69418
_cell_length_b       5.69418
_cell_length_c       8.40459
_cell_angle_alpha    60.1854
_cell_angle_beta     60.1854
_cell_angle_gamma    38.8235

_symmetry_Int_Tables_number  12
_chemical_formula_structural  VBi2
_chemical_formula_sum  V2Bi4
_cell_volume  145.1756639704634
_cell_formula_units_Z  2
loop_
  _symmetry_equiv_pos_site_id
 _symmetry_equiv_pos_as_xyz
 1  'x, y, z'
loop_
 _atom_site_type_symbol
 _atom_site_label
 _atom_site_symmetry_multiplicity
 _atom_site_fract_x
 _atom_site_fract_y
 _atom_site_fract_z
 _atom_site_fract_occupancy
 Bi  Bi1  1  0.40879  0.40879  0.88474  1
 Bi  Bi2  1  0.59121  0.59121  0.11526  1
 Bi  Bi3  1  0.84081  0.84081  0.55149  1
 Bi  Bi4  1  0.15919  0.15919  0.44851  1
 V  V1  1  0.14099  0.14099  0.82084  1
 V  V2  1  0.85901  0.85901  0.17916  1
