CIF file written using JARVIS-Tools package.
data_Zn3In2O6
_symmetry_space_group_name_H-M  'R3m'
_cell_length_a       14.2308
_cell_length_b       14.2308
_cell_length_c       14.2308
_cell_angle_alpha    13.8861
_cell_angle_beta     13.886
_cell_angle_gamma    13.8861

_symmetry_Int_Tables_number  160
_chemical_formula_structural  Zn3In2O6
_chemical_formula_sum  Zn3In2O6
_cell_volume  144.45395731032167
_cell_formula_units_Z  1
loop_
  _symmetry_equiv_pos_site_id
 _symmetry_equiv_pos_as_xyz
 1  'x, y, z'
loop_
 _atom_site_type_symbol
 _atom_site_label
 _atom_site_symmetry_multiplicity
 _atom_site_fract_x
 _atom_site_fract_y
 _atom_site_fract_z
 _atom_site_fract_occupancy
 In  In1  1  0.00031  0.00031  0.00031  1
 In  In2  1  0.86322  0.86322  0.86322  1
 O  O1  1  0.91520  0.91520  0.91520  1
 O  O2  1  0.08398  0.08398  0.08398  1
 O  O3  1  0.19518  0.19518  0.19518  1
 O  O4  1  0.81055  0.81055  0.81055  1
 O  O5  1  0.30869  0.30869  0.30869  1
 O  O6  1  0.69124  0.69124  0.69124  1
 Zn  Zn1  1  0.26234  0.26234  0.26234  1
 Zn  Zn2  1  0.73818  0.73818  0.73818  1
 Zn  Zn3  1  0.13116  0.13116  0.13116  1
