CIF file written using JARVIS-Tools package.
data_YZr2Co9
_symmetry_space_group_name_H-M  'R3m'
_cell_length_a       4.79495
_cell_length_b       4.79495
_cell_length_c       8.4405
_cell_angle_alpha    90
_cell_angle_beta     73.4983
_cell_angle_gamma    120

_symmetry_Int_Tables_number  160
_chemical_formula_structural  YZr2Co9
_chemical_formula_sum  YZr2Co9
_cell_volume  158.76429804729636
_cell_formula_units_Z  1
loop_
  _symmetry_equiv_pos_site_id
 _symmetry_equiv_pos_as_xyz
 1  'x, y, z'
loop_
 _atom_site_type_symbol
 _atom_site_label
 _atom_site_symmetry_multiplicity
 _atom_site_fract_x
 _atom_site_fract_y
 _atom_site_fract_z
 _atom_site_fract_occupancy
 Co  Co1  1  0.65990  0.57958  0.76052  1
 Co  Co2  1  0.15916  0.57958  0.76052  1
 Co  Co3  1  0.65990  0.08032  0.76052  1
 Co  Co4  1  0.33766  0.41975  0.24259  1
 Co  Co5  1  0.83950  0.41975  0.24259  1
 Co  Co6  1  0.33766  0.91791  0.24259  1
 Co  Co7  1  0.66552  0.33276  0.00172  1
 Co  Co8  1  0.33265  0.66632  0.00103  1
 Co  Co9  1  0.00021  0.50010  0.49969  1
 Y  Y1  1  0.27888  0.13944  0.58167  1
 Zr  Zr1  1  0.72789  0.86394  0.40817  1
 Zr  Zr2  1  0.00107  0.00053  -0.00160  1
