CIF file written using JARVIS-Tools package.
data_RbS
_symmetry_space_group_name_H-M  'Cmcm'
_cell_length_a       5.84847
_cell_length_b       5.84847
_cell_length_c       4.84768
_cell_angle_alpha    90
_cell_angle_beta     90
_cell_angle_gamma    129.776

_symmetry_Int_Tables_number  63
_chemical_formula_structural  RbS
_chemical_formula_sum  Rb2S2
_cell_volume  127.43564496028614
_cell_formula_units_Z  2
loop_
  _symmetry_equiv_pos_site_id
 _symmetry_equiv_pos_as_xyz
 1  'x, y, z'
loop_
 _atom_site_type_symbol
 _atom_site_label
 _atom_site_symmetry_multiplicity
 _atom_site_fract_x
 _atom_site_fract_y
 _atom_site_fract_z
 _atom_site_fract_occupancy
 Rb  Rb1  1  0.14770  0.85230  0.75000  1
 Rb  Rb2  1  0.85230  0.14770  0.25000  1
 S  S1  1  0.46466  0.53534  0.75000  1
 S  S2  1  0.53534  0.46466  0.25000  1
