CIF file written using JARVIS-Tools package.
data_Sr3CaSn4O12
_symmetry_space_group_name_H-M  'Pm'
_cell_length_a       8.11148
_cell_length_b       5.71241
_cell_length_c       5.78259
_cell_angle_alpha    90.0735
_cell_angle_beta     90
_cell_angle_gamma    90

_symmetry_Int_Tables_number  6
_chemical_formula_structural  Sr3CaSn4O12
_chemical_formula_sum  Sr3CaSn4O2
_cell_volume  267.94261524121913
_cell_formula_units_Z  1
loop_
  _symmetry_equiv_pos_site_id
 _symmetry_equiv_pos_as_xyz
 1  'x, y, z'
loop_
 _atom_site_type_symbol
 _atom_site_label
 _atom_site_symmetry_multiplicity
 _atom_site_fract_x
 _atom_site_fract_y
 _atom_site_fract_z
 _atom_site_fract_occupancy
 Ca  Ca1  1  0.00000  0.48931  0.45116  1
 O  O1  1  0.00000  0.57728  0.04116  1
 O  O2  1  0.20743  0.21209  0.21340  1
 O  O3  1  0.50000  0.42141  0.97507  1
 O  O4  1  0.71138  0.79469  0.79246  1
 O  O5  1  0.29201  0.71071  0.28741  1
 O  O6  1  0.80217  0.29823  0.70290  1
 O  O7  1  0.70799  0.71071  0.28741  1
 O  O8  1  0.79257  0.21209  0.21340  1
 O  O9  1  0.19783  0.29823  0.70290  1
 O  O10  1  0.50000  0.07648  0.48665  1
 O  O11  1  0.00000  0.90021  0.51843  1
 O  O12  1  0.28862  0.79469  0.79246  1
 Sn  Sn1  1  0.24744  0.99931  0.50053  1
 Sn  Sn2  1  0.75192  0.50033  0.99800  1
 Sn  Sn3  1  0.75256  0.99931  0.50053  1
 Sn  Sn4  1  0.24808  0.50033  0.99800  1
 Sr  Sr1  1  0.50000  0.98997  0.04047  1
 Sr  Sr2  1  0.50000  0.50883  0.53371  1
 Sr  Sr3  1  0.00000  0.00579  0.96397  1
