CIF file written using JARVIS-Tools package.
data_Li2BN2
_symmetry_space_group_name_H-M  'P-3m1'
_cell_length_a       2.66795
_cell_length_b       2.66796
_cell_length_c       6.26299
_cell_angle_alpha    90
_cell_angle_beta     90
_cell_angle_gamma    120

_symmetry_Int_Tables_number  164
_chemical_formula_structural  Li2BN2
_chemical_formula_sum  Li2BN2
_cell_volume  38.60720825449099
_cell_formula_units_Z  1
loop_
  _symmetry_equiv_pos_site_id
 _symmetry_equiv_pos_as_xyz
 1  'x, y, z'
loop_
 _atom_site_type_symbol
 _atom_site_label
 _atom_site_symmetry_multiplicity
 _atom_site_fract_x
 _atom_site_fract_y
 _atom_site_fract_z
 _atom_site_fract_occupancy
 B  B1  1  0.00000  0.00000  0.00000  1
 Li  Li1  1  0.66667  0.33333  0.32224  1
 Li  Li2  1  0.33333  0.66667  0.67776  1
 N  N1  1  0.66667  0.33333  0.85048  1
 N  N2  1  0.33333  0.66667  0.14952  1
