CIF file written using JARVIS-Tools package.
data_Sr2PrFe3O9
_symmetry_space_group_name_H-M  'C2/m'
_cell_length_a       5.41479
_cell_length_b       5.41479
_cell_length_c       13.2731
_cell_angle_alpha    89.8211
_cell_angle_beta     89.8211
_cell_angle_gamma    59.9529

_symmetry_Int_Tables_number  12
_chemical_formula_structural  Sr2PrFe3O9
_chemical_formula_sum  Sr4Pr2Fe6O8
_cell_volume  336.86544311059515
_cell_formula_units_Z  2
loop_
  _symmetry_equiv_pos_site_id
 _symmetry_equiv_pos_as_xyz
 1  'x, y, z'
loop_
 _atom_site_type_symbol
 _atom_site_label
 _atom_site_symmetry_multiplicity
 _atom_site_fract_x
 _atom_site_fract_y
 _atom_site_fract_z
 _atom_site_fract_occupancy
 Fe  Fe1  1  0.50000  0.50000  0.00000  1
 Fe  Fe2  1  0.83265  0.83265  0.83410  1
 Fe  Fe3  1  0.16735  0.16735  0.16590  1
 Fe  Fe4  1  0.16594  0.16594  0.66587  1
 Fe  Fe5  1  0.83406  0.83406  0.33413  1
 Fe  Fe6  1  0.50000  0.50000  0.50000  1
 O  O1  1  0.98747  0.49088  0.75394  1
 O  O2  1  0.82003  0.32908  0.09084  1
 O  O3  1  0.83614  0.34290  0.58208  1
 O  O4  1  0.34386  0.34386  0.59507  1
 O  O5  1  0.50912  0.01253  0.24606  1
 O  O6  1  0.17997  0.67092  0.90916  1
 O  O7  1  0.65614  0.65614  0.40493  1
 O  O8  1  0.65710  0.16386  0.41792  1
 O  O9  1  0.32908  0.82003  0.09084  1
 O  O10  1  0.49088  0.98747  0.75394  1
 O  O11  1  0.01253  0.50912  0.24606  1
 O  O12  1  0.99098  0.99098  0.74221  1
 O  O13  1  0.67208  0.67208  0.92229  1
 O  O14  1  0.00902  0.00902  0.25779  1
 O  O15  1  0.16386  0.65710  0.41792  1
 O  O16  1  0.32792  0.32792  0.07771  1
 O  O17  1  0.67092  0.17997  0.90916  1
 O  O18  1  0.34290  0.83614  0.58208  1
 Pr  Pr1  1  0.49790  0.49790  0.24994  1
 Pr  Pr2  1  0.50210  0.50210  0.75006  1
 Sr  Sr1  1  0.83373  0.83373  0.58184  1
 Sr  Sr2  1  0.16692  0.16692  0.91800  1
 Sr  Sr3  1  0.16627  0.16627  0.41816  1
 Sr  Sr4  1  0.83308  0.83308  0.08200  1
