CIF file written using JARVIS-Tools package.
data_Sn3P
_symmetry_space_group_name_H-M  'P6_3/mmc'
_cell_length_a       6.52868
_cell_length_b       6.52868
_cell_length_c       5.43981
_cell_angle_alpha    90
_cell_angle_beta     90
_cell_angle_gamma    120

_symmetry_Int_Tables_number  194
_chemical_formula_structural  Sn3P
_chemical_formula_sum  Sn6P2
_cell_volume  200.80067169855587
_cell_formula_units_Z  2
loop_
  _symmetry_equiv_pos_site_id
 _symmetry_equiv_pos_as_xyz
 1  'x, y, z'
loop_
 _atom_site_type_symbol
 _atom_site_label
 _atom_site_symmetry_multiplicity
 _atom_site_fract_x
 _atom_site_fract_y
 _atom_site_fract_z
 _atom_site_fract_occupancy
 P  P1  1  0.66667  0.33333  0.25000  1
 P  P2  1  0.33333  0.66667  0.75000  1
 Sn  Sn1  1  0.82887  0.17113  0.75000  1
 Sn  Sn2  1  0.34226  0.17113  0.75000  1
 Sn  Sn3  1  0.82887  0.65774  0.75000  1
 Sn  Sn4  1  0.17113  0.82887  0.25000  1
 Sn  Sn5  1  0.65774  0.82887  0.25000  1
 Sn  Sn6  1  0.17113  0.34226  0.25000  1
