CIF file written using JARVIS-Tools package.
data_NaEuTi2O6
_symmetry_space_group_name_H-M  'Pmn2_1'
_cell_length_a       5.39544
_cell_length_b       5.49193
_cell_length_c       7.69475
_cell_angle_alpha    90
_cell_angle_beta     90
_cell_angle_gamma    90

_symmetry_Int_Tables_number  31
_chemical_formula_structural  NaEuTi2O6
_chemical_formula_sum  Na2Eu2Ti4O2
_cell_volume  228.00593736133075
_cell_formula_units_Z  2
loop_
  _symmetry_equiv_pos_site_id
 _symmetry_equiv_pos_as_xyz
 1  'x, y, z'
loop_
 _atom_site_type_symbol
 _atom_site_label
 _atom_site_symmetry_multiplicity
 _atom_site_fract_x
 _atom_site_fract_y
 _atom_site_fract_z
 _atom_site_fract_occupancy
 Eu  Eu1  1  0.00838  0.29766  0.50000  1
 Eu  Eu2  1  0.50838  0.70234  0.00000  1
 Na  Na1  1  0.49904  0.77585  0.50000  1
 Na  Na2  1  0.99904  0.22415  0.00000  1
 O  O1  1  0.57287  0.23227  0.50000  1
 O  O2  1  0.28376  0.53860  0.28292  1
 O  O3  1  0.43307  0.26491  0.00000  1
 O  O4  1  0.07287  0.76773  0.00000  1
 O  O5  1  0.93307  0.73509  0.50000  1
 O  O6  1  0.20097  0.04665  0.28896  1
 O  O7  1  0.70097  0.95335  0.21104  1
 O  O8  1  0.70097  0.95335  0.78896  1
 O  O9  1  0.28376  0.53860  0.71708  1
 O  O10  1  0.78376  0.46140  0.21708  1
 O  O11  1  0.78376  0.46140  0.78292  1
 O  O12  1  0.20097  0.04665  0.71104  1
 Ti  Ti1  1  0.00859  0.75903  0.74832  1
 Ti  Ti2  1  0.50859  0.24097  0.24832  1
 Ti  Ti3  1  0.00859  0.75903  0.25168  1
 Ti  Ti4  1  0.50859  0.24097  0.75168  1
