CIF file written using JARVIS-Tools package.
data_Mn5SnO8
_symmetry_space_group_name_H-M  'I-4m2'
_cell_length_a       5.88769
_cell_length_b       5.88769
_cell_length_c       9.59834
_cell_angle_alpha    89.9995
_cell_angle_beta     89.9973
_cell_angle_gamma    89.9997

_symmetry_Int_Tables_number  119
_chemical_formula_structural  Mn5SnO8
_chemical_formula_sum  Mn0Sn2O6
_cell_volume  332.7250822489293
_cell_formula_units_Z  2
loop_
  _symmetry_equiv_pos_site_id
 _symmetry_equiv_pos_as_xyz
 1  'x, y, z'
loop_
 _atom_site_type_symbol
 _atom_site_label
 _atom_site_symmetry_multiplicity
 _atom_site_fract_x
 _atom_site_fract_y
 _atom_site_fract_z
 _atom_site_fract_occupancy
 Mn  Mn1  1  0.00001  0.50000  0.75001  1
 Mn  Mn2  1  0.50000  0.25824  0.87031  1
 Mn  Mn3  1  0.50000  0.74176  0.87031  1
 Mn  Mn4  1  -0.00000  0.75823  0.37029  1
 Mn  Mn5  1  0.75824  0.00000  0.62971  1
 Mn  Mn6  1  -0.00000  0.24176  0.37029  1
 Mn  Mn7  1  0.74176  0.50000  0.12969  1
 Mn  Mn8  1  0.24177  0.00000  0.62971  1
 Mn  Mn9  1  0.25824  0.50000  0.12969  1
 Mn  Mn10  1  0.50001  1.00000  0.24999  1
 O  O1  1  0.28645  0.00000  0.86140  1
 O  O2  1  0.78644  0.50000  0.36138  1
 O  O3  1  0.50001  0.72752  0.12136  1
 O  O4  1  0.21354  0.50000  0.36135  1
 O  O5  1  0.71355  0.00000  0.86138  1
 O  O6  1  0.00000  0.28645  0.13861  1
 O  O7  1  0.50000  0.78645  0.63864  1
 O  O8  1  0.50000  0.21355  0.63863  1
 O  O9  1  0.00001  0.77249  0.62138  1
 O  O10  1  0.22751  -0.00000  0.37861  1
 O  O11  1  0.72752  0.50000  0.87863  1
 O  O12  1  0.50001  0.27248  0.12136  1
 O  O13  1  -0.00000  0.71355  0.13861  1
 O  O14  1  0.77249  -0.00000  0.37862  1
 O  O15  1  0.27248  0.50000  0.87864  1
 O  O16  1  0.00001  0.22751  0.62138  1
 Sn  Sn1  1  0.49997  0.50001  0.50000  1
 Sn  Sn2  1  -0.00002  0.00000  0.00000  1
