CIF file written using JARVIS-Tools package.
data_MnZn3Fe8O16
_symmetry_space_group_name_H-M  'P-4m2'
_cell_length_a       5.74994
_cell_length_b       5.74994
_cell_length_c       8.12806
_cell_angle_alpha    90
_cell_angle_beta     90
_cell_angle_gamma    90

_symmetry_Int_Tables_number  115
_chemical_formula_structural  MnZn3Fe8O16
_chemical_formula_sum  MnZn3Fe8O6
_cell_volume  268.7279190956677
_cell_formula_units_Z  1
loop_
  _symmetry_equiv_pos_site_id
 _symmetry_equiv_pos_as_xyz
 1  'x, y, z'
loop_
 _atom_site_type_symbol
 _atom_site_label
 _atom_site_symmetry_multiplicity
 _atom_site_fract_x
 _atom_site_fract_y
 _atom_site_fract_z
 _atom_site_fract_occupancy
 Fe  Fe1  1  0.25314  0.00000  0.12319  1
 Fe  Fe2  1  0.74844  0.50000  0.62867  1
 Fe  Fe3  1  0.50000  0.74844  0.37133  1
 Fe  Fe4  1  0.00000  0.25314  0.87681  1
 Fe  Fe5  1  0.00000  0.74686  0.87681  1
 Fe  Fe6  1  0.50000  0.25156  0.37133  1
 Fe  Fe7  1  0.74686  0.00000  0.12319  1
 Fe  Fe8  1  0.25156  0.50000  0.62867  1
 Mn  Mn1  1  0.50000  0.50000  0.00000  1
 O  O1  1  0.27551  0.50000  0.39090  1
 O  O2  1  0.50000  0.76252  0.12837  1
 O  O3  1  0.50000  0.27551  0.60910  1
 O  O4  1  0.77784  0.00000  0.88678  1
 O  O5  1  0.72449  0.50000  0.39090  1
 O  O6  1  0.22216  0.00000  0.88678  1
 O  O7  1  0.00000  0.77784  0.11322  1
 O  O8  1  0.00000  0.22216  0.11322  1
 O  O9  1  0.76252  0.50000  0.87163  1
 O  O10  1  0.72257  0.00000  0.35904  1
 O  O11  1  0.23748  0.50000  0.87163  1
 O  O12  1  0.27743  0.00000  0.35904  1
 O  O13  1  0.50000  0.72449  0.60910  1
 O  O14  1  0.50000  0.23748  0.12837  1
 O  O15  1  0.00000  0.72257  0.64096  1
 O  O16  1  0.00000  0.27743  0.64096  1
 Zn  Zn1  1  0.00000  0.50000  0.25208  1
 Zn  Zn2  1  0.50000  0.00000  0.74792  1
 Zn  Zn3  1  0.00000  0.00000  0.50000  1
