CIF file written using JARVIS-Tools package.
data_PrYAl6
_symmetry_space_group_name_H-M  'P-6m2'
_cell_length_a       6.46754
_cell_length_b       6.46754
_cell_length_c       4.61572
_cell_angle_alpha    90
_cell_angle_beta     90
_cell_angle_gamma    120

_symmetry_Int_Tables_number  187
_chemical_formula_structural  PrYAl6
_chemical_formula_sum  PrYAl6
_cell_volume  167.20445985112818
_cell_formula_units_Z  1
loop_
  _symmetry_equiv_pos_site_id
 _symmetry_equiv_pos_as_xyz
 1  'x, y, z'
loop_
 _atom_site_type_symbol
 _atom_site_label
 _atom_site_symmetry_multiplicity
 _atom_site_fract_x
 _atom_site_fract_y
 _atom_site_fract_z
 _atom_site_fract_occupancy
 Al  Al1  1  0.28318  0.14159  0.50000  1
 Al  Al2  1  0.85841  0.14159  0.50000  1
 Al  Al3  1  0.85841  0.71682  0.50000  1
 Al  Al4  1  0.71004  0.85502  0.00000  1
 Al  Al5  1  0.14498  0.85502  0.00000  1
 Al  Al6  1  0.14498  0.28996  0.00000  1
 Pr  Pr1  1  0.66667  0.33333  0.00000  1
 Y  Y1  1  0.33333  0.66667  0.50000  1
