CIF file written using JARVIS-Tools package.
data_LuCu3S3
_symmetry_space_group_name_H-M  'P-3m1'
_cell_length_a       3.83426
_cell_length_b       3.83425
_cell_length_c       19.0055
_cell_angle_alpha    90
_cell_angle_beta     90
_cell_angle_gamma    120

_symmetry_Int_Tables_number  164
_chemical_formula_structural  LuCu3S3
_chemical_formula_sum  Lu2Cu6S6
_cell_volume  241.97596611361948
_cell_formula_units_Z  2
loop_
  _symmetry_equiv_pos_site_id
 _symmetry_equiv_pos_as_xyz
 1  'x, y, z'
loop_
 _atom_site_type_symbol
 _atom_site_label
 _atom_site_symmetry_multiplicity
 _atom_site_fract_x
 _atom_site_fract_y
 _atom_site_fract_z
 _atom_site_fract_occupancy
 Cu  Cu1  1  0.66667  0.33333  0.95486  1
 Cu  Cu2  1  0.66667  0.33333  0.56190  1
 Cu  Cu3  1  0.66667  0.33333  0.29864  1
 Cu  Cu4  1  0.33333  0.66667  0.04514  1
 Cu  Cu5  1  0.33333  0.66667  0.70136  1
 Cu  Cu6  1  0.33333  0.66667  0.43810  1
 Lu  Lu1  1  0.00000  0.00000  0.17203  1
 Lu  Lu2  1  0.00000  0.00000  0.82797  1
 S  S1  1  0.66667  0.33333  0.08454  1
 S  S2  1  0.66667  0.33333  0.75067  1
 S  S3  1  0.66667  0.33333  0.41653  1
 S  S4  1  0.33333  0.66667  0.91546  1
 S  S5  1  0.33333  0.66667  0.58347  1
 S  S6  1  0.33333  0.66667  0.24933  1
