CIF file written using JARVIS-Tools package.
data_Fe3Pd
_symmetry_space_group_name_H-M  'Cmmm'
_cell_length_a       2.58166
_cell_length_b       2.58165
_cell_length_c       8.12262
_cell_angle_alpha    90
_cell_angle_beta     90
_cell_angle_gamma    108.505

_symmetry_Int_Tables_number  65
_chemical_formula_structural  Fe3Pd
_chemical_formula_sum  Fe3Pd
_cell_volume  51.337862943665236
_cell_formula_units_Z  1
loop_
  _symmetry_equiv_pos_site_id
 _symmetry_equiv_pos_as_xyz
 1  'x, y, z'
loop_
 _atom_site_type_symbol
 _atom_site_label
 _atom_site_symmetry_multiplicity
 _atom_site_fract_x
 _atom_site_fract_y
 _atom_site_fract_z
 _atom_site_fract_occupancy
 Fe  Fe1  1  0.50000  0.50000  0.73656  1
 Fe  Fe2  1  0.00000  0.00000  0.50000  1
 Fe  Fe3  1  0.50000  0.50000  0.26344  1
 Pd  Pd1  1  0.00000  0.00000  0.00000  1
