CIF file written using JARVIS-Tools package.
data_KLuTa2O7
_symmetry_space_group_name_H-M  'Imma'
_cell_length_a       7.47859
_cell_length_b       7.47859
_cell_length_c       7.47859
_cell_angle_alpha    121.277
_cell_angle_beta     120.01
_cell_angle_gamma    88.8922

_symmetry_Int_Tables_number  74
_chemical_formula_structural  KLuTa2O7
_chemical_formula_sum  K2Lu2Ta4O4
_cell_volume  292.78066488556965
_cell_formula_units_Z  2
loop_
  _symmetry_equiv_pos_site_id
 _symmetry_equiv_pos_as_xyz
 1  'x, y, z'
loop_
 _atom_site_type_symbol
 _atom_site_label
 _atom_site_symmetry_multiplicity
 _atom_site_fract_x
 _atom_site_fract_y
 _atom_site_fract_z
 _atom_site_fract_occupancy
 K  K1  1  0.00000  -0.00000  0.50000  1
 K  K2  1  0.00000  0.50000  -0.00000  1
 Lu  Lu1  1  0.00000  0.00000  0.00000  1
 Lu  Lu2  1  0.50000  -0.00000  0.50000  1
 O  O1  1  0.16517  0.91517  0.25000  1
 O  O2  1  0.83483  0.08483  0.75000  1
 O  O3  1  0.55774  0.82150  0.13856  1
 O  O4  1  0.80908  0.55908  0.25000  1
 O  O5  1  0.44226  0.58082  0.26376  1
 O  O6  1  0.43432  0.18432  0.25000  1
 O  O7  1  0.44226  0.17850  0.86144  1
 O  O8  1  0.81706  0.58082  0.63856  1
 O  O9  1  0.19092  0.44092  0.75000  1
 O  O10  1  0.81706  0.17850  0.23624  1
 O  O11  1  0.55774  0.41918  0.73624  1
 O  O12  1  0.18294  0.82150  0.76376  1
 O  O13  1  0.56568  0.81568  0.75000  1
 O  O14  1  0.18294  0.41918  0.36144  1
 Ta  Ta1  1  0.00000  0.50000  0.50000  1
 Ta  Ta2  1  0.50000  0.50000  -0.00000  1
 Ta  Ta3  1  0.50000  -0.00000  -0.00000  1
 Ta  Ta4  1  0.50000  0.50000  0.50000  1
