CIF file written using JARVIS-Tools package.
data_Hf8Mo5S
_symmetry_space_group_name_H-M  'Amm2'
_cell_length_a       8.38401
_cell_length_b       8.38402
_cell_length_c       8.42871
_cell_angle_alpha    90
_cell_angle_beta     90
_cell_angle_gamma    114.214

_symmetry_Int_Tables_number  38
_chemical_formula_structural  Hf8Mo5S
_chemical_formula_sum  Hf6Mo0S2
_cell_volume  540.3446154307746
_cell_formula_units_Z  2
loop_
  _symmetry_equiv_pos_site_id
 _symmetry_equiv_pos_as_xyz
 1  'x, y, z'
loop_
 _atom_site_type_symbol
 _atom_site_label
 _atom_site_symmetry_multiplicity
 _atom_site_fract_x
 _atom_site_fract_y
 _atom_site_fract_z
 _atom_site_fract_occupancy
 Hf  Hf1  1  0.18077  0.39078  0.19246  1
 Hf  Hf2  1  0.39431  0.18333  0.70432  1
 Hf  Hf3  1  0.60922  0.81923  0.19246  1
 Hf  Hf4  1  0.81667  0.60569  0.29568  1
 Hf  Hf5  1  0.39431  0.18333  0.29568  1
 Hf  Hf6  1  0.79370  0.20630  0.30489  1
 Hf  Hf7  1  0.81667  0.60569  0.70432  1
 Hf  Hf8  1  0.45190  0.90213  0.50000  1
 Hf  Hf9  1  0.20464  0.79536  0.19012  1
 Hf  Hf10  1  0.18077  0.39078  0.80754  1
 Hf  Hf11  1  0.60922  0.81923  0.80754  1
 Hf  Hf12  1  0.20464  0.79536  0.80988  1
 Hf  Hf13  1  0.55749  0.44251  0.00000  1
 Hf  Hf14  1  0.09787  0.54810  0.50000  1
 Hf  Hf15  1  0.45850  0.54150  0.50000  1
 Hf  Hf16  1  0.79370  0.20630  0.69511  1
 Mo  Mo1  1  0.87757  0.12243  0.00000  1
 Mo  Mo2  1  0.99909  0.00091  0.24639  1
 Mo  Mo3  1  0.99909  0.00091  0.75361  1
 Mo  Mo4  1  0.21912  0.10442  0.00000  1
 Mo  Mo5  1  0.89558  0.78088  0.00000  1
 Mo  Mo6  1  0.11128  0.88872  0.50000  1
 Mo  Mo7  1  0.77923  0.89261  0.50000  1
 Mo  Mo8  1  0.55391  0.11054  0.00000  1
 Mo  Mo9  1  0.88946  0.44609  0.00000  1
 Mo  Mo10  1  0.10739  0.22077  0.50000  1
 S  S1  1  0.35935  0.64065  0.00000  1
 S  S2  1  0.64526  0.35474  0.50000  1
