CIF file written using JARVIS-Tools package.
data_HoAs3
_symmetry_space_group_name_H-M  'P6_3/mmc'
_cell_length_a       6.01192
_cell_length_b       6.01192
_cell_length_c       5.47993
_cell_angle_alpha    90
_cell_angle_beta     90
_cell_angle_gamma    120

_symmetry_Int_Tables_number  194
_chemical_formula_structural  HoAs3
_chemical_formula_sum  Ho2As6
_cell_volume  171.52659589838487
_cell_formula_units_Z  2
loop_
  _symmetry_equiv_pos_site_id
 _symmetry_equiv_pos_as_xyz
 1  'x, y, z'
loop_
 _atom_site_type_symbol
 _atom_site_label
 _atom_site_symmetry_multiplicity
 _atom_site_fract_x
 _atom_site_fract_y
 _atom_site_fract_z
 _atom_site_fract_occupancy
 As  As1  1  0.18203  0.36405  0.25000  1
 As  As2  1  0.63595  0.81797  0.25000  1
 As  As3  1  0.18203  0.81797  0.25000  1
 As  As4  1  0.81797  0.63595  0.75000  1
 As  As5  1  0.36405  0.18203  0.75000  1
 As  As6  1  0.81797  0.18203  0.75000  1
 Ho  Ho1  1  0.33333  0.66667  0.75000  1
 Ho  Ho2  1  0.66667  0.33333  0.25000  1
