CIF file written using JARVIS-Tools package.
data_Cu10Hg2Sb4S13
_symmetry_space_group_name_H-M  'I-42m'
_cell_length_a       9.15843
_cell_length_b       9.15843
_cell_length_c       9.15843
_cell_angle_alpha    110.653
_cell_angle_beta     110.653
_cell_angle_gamma    107.133

_symmetry_Int_Tables_number  121
_chemical_formula_structural  Cu10Hg2Sb4S13
_chemical_formula_sum  Cu0Hg2Sb4S3
_cell_volume  590.6100044142129
_cell_formula_units_Z  1
loop_
  _symmetry_equiv_pos_site_id
 _symmetry_equiv_pos_as_xyz
 1  'x, y, z'
loop_
 _atom_site_type_symbol
 _atom_site_label
 _atom_site_symmetry_multiplicity
 _atom_site_fract_x
 _atom_site_fract_y
 _atom_site_fract_z
 _atom_site_fract_occupancy
 Cu  Cu1  1  0.23098  0.50000  0.73098  1
 Cu  Cu2  1  0.77848  -0.00000  0.77848  1
 Cu  Cu3  1  -0.00000  0.77848  0.77848  1
 Cu  Cu4  1  0.22152  0.00000  0.22152  1
 Cu  Cu5  1  0.75000  0.25000  0.50000  1
 Cu  Cu6  1  0.00000  0.22152  0.22152  1
 Cu  Cu7  1  0.50000  0.76902  0.26902  1
 Cu  Cu8  1  0.25000  0.75000  0.50000  1
 Cu  Cu9  1  0.50000  0.23098  0.73098  1
 Cu  Cu10  1  0.76902  0.50000  0.26902  1
 Hg  Hg1  1  0.75876  0.75876  -0.00000  1
 Hg  Hg2  1  0.24124  0.24124  0.00000  1
 S  S1  1  0.47637  0.74415  0.00000  1
 S  S2  1  0.01097  0.75782  0.53001  1
 S  S3  1  0.75782  0.01097  0.53001  1
 S  S4  1  0.25585  0.25585  0.73222  1
 S  S5  1  0.77218  0.24218  0.25315  1
 S  S6  1  0.51903  0.98903  0.74685  1
 S  S7  1  0.98903  0.51903  0.74685  1
 S  S8  1  0.22782  0.48097  0.46999  1
 S  S9  1  0.74415  0.47637  0.00000  1
 S  S10  1  0.00000  0.00000  0.00000  1
 S  S11  1  0.48097  0.22782  0.46999  1
 S  S12  1  0.52363  0.52363  0.26778  1
 S  S13  1  0.24218  0.77218  0.25315  1
 Sb  Sb1  1  0.46385  0.01474  0.00000  1
 Sb  Sb2  1  0.98526  0.98526  0.44911  1
 Sb  Sb3  1  0.53615  0.53615  0.55089  1
 Sb  Sb4  1  0.01474  0.46385  0.00000  1
