CIF file written using JARVIS-Tools package.
data_LiBN
_symmetry_space_group_name_H-M  'Pm'
_cell_length_a       5.65707
_cell_length_b       2.59848
_cell_length_c       3.48455
_cell_angle_alpha    90
_cell_angle_beta     90
_cell_angle_gamma    46.6906

_symmetry_Int_Tables_number  6
_chemical_formula_structural  LiBN
_chemical_formula_sum  LiBN
_cell_volume  37.272340669743315
_cell_formula_units_Z  1
loop_
  _symmetry_equiv_pos_site_id
 _symmetry_equiv_pos_as_xyz
 1  'x, y, z'
loop_
 _atom_site_type_symbol
 _atom_site_label
 _atom_site_symmetry_multiplicity
 _atom_site_fract_x
 _atom_site_fract_y
 _atom_site_fract_z
 _atom_site_fract_occupancy
 B  B1  1  0.32723  0.23982  0.00000  1
 Li  Li1  1  -0.22325  0.06774  0.00000  1
 N  N1  1  0.20638  -0.07967  0.00000  1
