CIF file written using JARVIS-Tools package.
data_Cr8Co3NiS16
_symmetry_space_group_name_H-M  'R3m'
_cell_length_a       6.88748
_cell_length_b       6.88748
_cell_length_c       11.9308
_cell_angle_alpha    73.2233
_cell_angle_beta     90
_cell_angle_gamma    120

_symmetry_Int_Tables_number  160
_chemical_formula_structural  Cr8Co3NiS16
_chemical_formula_sum  Cr8Co3NiS6
_cell_volume  462.11538936894084
_cell_formula_units_Z  1
loop_
  _symmetry_equiv_pos_site_id
 _symmetry_equiv_pos_as_xyz
 1  'x, y, z'
loop_
 _atom_site_type_symbol
 _atom_site_label
 _atom_site_symmetry_multiplicity
 _atom_site_fract_x
 _atom_site_fract_y
 _atom_site_fract_z
 _atom_site_fract_occupancy
 Co  Co1  1  0.18753  0.87505  0.43742  1
 Co  Co2  1  0.81249  0.12498  0.56252  1
 Co  Co3  1  0.68745  0.87491  0.93763  1
 Cr  Cr1  1  0.74960  0.49950  0.75059  1
 Cr  Cr2  1  0.24925  0.50002  0.24921  1
 Cr  Cr3  1  0.99964  0.49927  0.00109  1
 Cr  Cr4  1  0.75077  0.50002  0.24921  1
 Cr  Cr5  1  0.24990  -0.00019  0.75059  1
 Cr  Cr6  1  0.75077  0.00154  0.24921  1
 Cr  Cr7  1  0.50017  0.50035  0.49948  1
 Cr  Cr8  1  0.24990  0.49950  0.75059  1
 Ni  Ni1  1  0.31249  0.12498  0.06253  1
 S  S1  1  0.61640  0.25572  0.62789  1
 S  S2  1  0.87783  0.25566  0.36651  1
 S  S3  1  0.86146  0.74470  0.37207  1
 S  S4  1  0.11670  0.73339  0.12772  1
 S  S5  1  0.61640  0.73280  0.62789  1
 S  S6  1  0.11670  0.25559  0.12772  1
 S  S7  1  0.37778  0.25556  0.86666  1
 S  S8  1  0.38323  0.74470  0.37207  1
 S  S9  1  0.62221  0.74442  0.13337  1
 S  S10  1  0.12232  0.74464  0.63304  1
 S  S11  1  0.38323  0.26647  0.37207  1
 S  S12  1  0.88310  0.26619  0.87244  1
 S  S13  1  0.63889  0.25559  0.12772  1
 S  S14  1  0.88310  0.74446  0.87244  1
 S  S15  1  0.13932  0.25572  0.62789  1
 S  S16  1  0.36136  0.74446  0.87244  1
