CIF file written using JARVIS-Tools package.
data_Na2BC2
_symmetry_space_group_name_H-M  'P-3m1'
_cell_length_a       4.43776
_cell_length_b       4.43776
_cell_length_c       4.18871
_cell_angle_alpha    90
_cell_angle_beta     90
_cell_angle_gamma    120

_symmetry_Int_Tables_number  164
_chemical_formula_structural  Na2BC2
_chemical_formula_sum  Na2BC2
_cell_volume  71.43946294824373
_cell_formula_units_Z  1
loop_
  _symmetry_equiv_pos_site_id
 _symmetry_equiv_pos_as_xyz
 1  'x, y, z'
loop_
 _atom_site_type_symbol
 _atom_site_label
 _atom_site_symmetry_multiplicity
 _atom_site_fract_x
 _atom_site_fract_y
 _atom_site_fract_z
 _atom_site_fract_occupancy
 B  B1  1  0.00000  0.00000  0.00000  1
 C  C1  1  0.00000  0.00000  0.34032  1
 C  C2  1  0.00000  0.00000  0.65968  1
 Na  Na1  1  0.33333  0.66667  0.26278  1
 Na  Na2  1  0.66667  0.33333  0.73722  1
