CIF file written using JARVIS-Tools package.
data_BCN2
_symmetry_space_group_name_H-M  'R-3m'
_cell_length_a       4.69114
_cell_length_b       4.69114
_cell_length_c       4.69114
_cell_angle_alpha    32.4911
_cell_angle_beta     32.4911
_cell_angle_gamma    32.4912

_symmetry_Int_Tables_number  166
_chemical_formula_structural  BCN2
_chemical_formula_sum  BCN2
_cell_volume  26.48797782829857
_cell_formula_units_Z  1
loop_
  _symmetry_equiv_pos_site_id
 _symmetry_equiv_pos_as_xyz
 1  'x, y, z'
loop_
 _atom_site_type_symbol
 _atom_site_label
 _atom_site_symmetry_multiplicity
 _atom_site_fract_x
 _atom_site_fract_y
 _atom_site_fract_z
 _atom_site_fract_occupancy
 B  B1  1  0.00000  0.00000  0.00000  1
 C  C1  1  0.50000  0.50000  0.50000  1
 N  N1  1  0.40366  0.40366  0.40366  1
 N  N2  1  0.59634  0.59634  0.59634  1
