CIF file written using JARVIS-Tools package.
data_Ca2TiSi2SnO10
_symmetry_space_group_name_H-M  'P-1'
_cell_length_a       5.47642
_cell_length_b       5.57712
_cell_length_c       7.16402
_cell_angle_alpha    104.609
_cell_angle_beta     102.906
_cell_angle_gamma    106.384

_symmetry_Int_Tables_number  2
_chemical_formula_structural  Ca2TiSi2SnO10
_chemical_formula_sum  Ca2TiSi2SnO0
_cell_volume  192.64530895045237
_cell_formula_units_Z  1
loop_
  _symmetry_equiv_pos_site_id
 _symmetry_equiv_pos_as_xyz
 1  'x, y, z'
loop_
 _atom_site_type_symbol
 _atom_site_label
 _atom_site_symmetry_multiplicity
 _atom_site_fract_x
 _atom_site_fract_y
 _atom_site_fract_z
 _atom_site_fract_occupancy
 Ca  Ca1  1  0.16441  0.83322  0.77985  1
 Ca  Ca2  1  0.83559  0.16678  0.22015  1
 O  O1  1  0.22683  0.11199  0.40176  1
 O  O2  1  0.11119  0.25949  0.92591  1
 O  O3  1  0.77317  0.88801  0.59824  1
 O  O4  1  0.88881  0.74051  0.07409  1
 O  O5  1  0.58084  0.42202  0.23901  1
 O  O6  1  0.41916  0.57798  0.76099  1
 O  O7  1  0.59440  0.18168  0.87044  1
 O  O8  1  0.17499  0.61136  0.38031  1
 O  O9  1  0.40560  0.81832  0.12956  1
 O  O10  1  0.82501  0.38864  0.61969  1
 Si  Si1  1  0.17949  0.81621  0.24981  1
 Si  Si2  1  0.82051  0.18379  0.75019  1
 Sn  Sn1  1  0.50000  0.50000  0.50000  1
 Ti  Ti1  1  0.50000  0.50000  -0.00000  1
