CIF file written using JARVIS-Tools package.
data_Mg5Sc
_symmetry_space_group_name_H-M  'R32'
_cell_length_a       6.17166
_cell_length_b       6.17166
_cell_length_c       6.17167
_cell_angle_alpha    52.5539
_cell_angle_beta     52.554
_cell_angle_gamma    52.554

_symmetry_Int_Tables_number  155
_chemical_formula_structural  Mg5Sc
_chemical_formula_sum  Mg5Sc
_cell_volume  137.17182281164642
_cell_formula_units_Z  1
loop_
  _symmetry_equiv_pos_site_id
 _symmetry_equiv_pos_as_xyz
 1  'x, y, z'
loop_
 _atom_site_type_symbol
 _atom_site_label
 _atom_site_symmetry_multiplicity
 _atom_site_fract_x
 _atom_site_fract_y
 _atom_site_fract_z
 _atom_site_fract_occupancy
 Mg  Mg1  1  0.34061  -0.00000  0.65939  1
 Mg  Mg2  1  0.65939  0.34061  0.00000  1
 Mg  Mg3  1  0.00000  0.65939  0.34061  1
 Mg  Mg4  1  0.16292  0.16292  0.16292  1
 Mg  Mg5  1  0.83708  0.83708  0.83708  1
 Sc  Sc1  1  0.50000  0.50000  0.50000  1
