CIF file written using JARVIS-Tools package.
data_Ba3LaTa3O12
_symmetry_space_group_name_H-M  'R3m'
_cell_length_a       9.85228
_cell_length_b       9.85228
_cell_length_c       9.85228
_cell_angle_alpha    34.1504
_cell_angle_beta     34.1504
_cell_angle_gamma    34.1504

_symmetry_Int_Tables_number  160
_chemical_formula_structural  Ba3LaTa3O12
_chemical_formula_sum  Ba3LaTa3O2
_cell_volume  268.70412882512636
_cell_formula_units_Z  1
loop_
  _symmetry_equiv_pos_site_id
 _symmetry_equiv_pos_as_xyz
 1  'x, y, z'
loop_
 _atom_site_type_symbol
 _atom_site_label
 _atom_site_symmetry_multiplicity
 _atom_site_fract_x
 _atom_site_fract_y
 _atom_site_fract_z
 _atom_site_fract_occupancy
 Ba  Ba1  1  0.71096  0.71096  0.71096  1
 Ba  Ba2  1  0.28788  0.28788  0.28788  1
 Ba  Ba3  1  0.13308  0.13308  0.13308  1
 La  La1  1  0.85549  0.85549  0.85549  1
 O  O1  1  0.20819  0.71101  0.20819  1
 O  O2  1  0.20819  0.20819  0.71101  1
 O  O3  1  0.62453  0.62453  0.12438  1
 O  O4  1  0.79512  0.28912  0.79512  1
 O  O5  1  0.71101  0.20819  0.20819  1
 O  O6  1  0.28912  0.79512  0.79512  1
 O  O7  1  0.37886  0.37886  0.87500  1
 O  O8  1  0.79512  0.79512  0.28912  1
 O  O9  1  0.87500  0.37886  0.37886  1
 O  O10  1  0.62453  0.12438  0.62453  1
 O  O11  1  0.37886  0.87500  0.37886  1
 O  O12  1  0.12438  0.62453  0.62453  1
 Ta  Ta1  1  0.99962  0.99962  0.99962  1
 Ta  Ta2  1  0.42360  0.42360  0.42360  1
 Ta  Ta3  1  0.57645  0.57645  0.57645  1
