CIF file written using JARVIS-Tools package.
data_CuBN2
_symmetry_space_group_name_H-M  'R-3m'
_cell_length_a       5.76334
_cell_length_b       5.76334
_cell_length_c       5.76334
_cell_angle_alpha    25.6091
_cell_angle_beta     25.6091
_cell_angle_gamma    25.6092

_symmetry_Int_Tables_number  166
_chemical_formula_structural  CuBN2
_chemical_formula_sum  CuBN2
_cell_volume  31.488238835643138
_cell_formula_units_Z  1
loop_
  _symmetry_equiv_pos_site_id
 _symmetry_equiv_pos_as_xyz
 1  'x, y, z'
loop_
 _atom_site_type_symbol
 _atom_site_label
 _atom_site_symmetry_multiplicity
 _atom_site_fract_x
 _atom_site_fract_y
 _atom_site_fract_z
 _atom_site_fract_occupancy
 B  B1  1  0.50000  0.50000  0.50000  1
 Cu  Cu1  1  0.00000  0.00000  0.00000  1
 N  N1  1  0.88826  0.88826  0.88826  1
 N  N2  1  0.11174  0.11174  0.11174  1
