CIF file written using JARVIS-Tools package.
data_AsRhS
_symmetry_space_group_name_H-M  'P2_13'
_cell_length_a       5.8564
_cell_length_b       5.8564
_cell_length_c       5.8564
_cell_angle_alpha    90
_cell_angle_beta     90
_cell_angle_gamma    90

_symmetry_Int_Tables_number  198
_chemical_formula_structural  AsRhS
_chemical_formula_sum  As4Rh4S4
_cell_volume  200.85933441369232
_cell_formula_units_Z  4
loop_
  _symmetry_equiv_pos_site_id
 _symmetry_equiv_pos_as_xyz
 1  'x, y, z'
loop_
 _atom_site_type_symbol
 _atom_site_label
 _atom_site_symmetry_multiplicity
 _atom_site_fract_x
 _atom_site_fract_y
 _atom_site_fract_z
 _atom_site_fract_occupancy
 As  As1  1  0.11681  0.88319  0.38319  1
 As  As2  1  0.88319  0.38319  0.11681  1
 As  As3  1  0.38319  0.11681  0.88319  1
 As  As4  1  0.61681  0.61681  0.61681  1
 Rh  Rh1  1  0.49670  0.50330  0.00330  1
 Rh  Rh2  1  0.50330  0.00330  0.49670  1
 Rh  Rh3  1  0.00330  0.49670  0.50330  1
 Rh  Rh4  1  0.99670  0.99670  0.99670  1
 S  S1  1  0.88628  0.11372  0.61372  1
 S  S2  1  0.11372  0.61372  0.88628  1
 S  S3  1  0.61372  0.88628  0.11372  1
 S  S4  1  0.38628  0.38628  0.38628  1
