CIF file written using JARVIS-Tools package.
data_Na3Tl
_symmetry_space_group_name_H-M  'P6_3/mmc'
_cell_length_a       6.93977
_cell_length_b       6.93978
_cell_length_c       5.71633
_cell_angle_alpha    90
_cell_angle_beta     90
_cell_angle_gamma    120

_symmetry_Int_Tables_number  194
_chemical_formula_structural  Na3Tl
_chemical_formula_sum  Na6Tl2
_cell_volume  238.41773971372714
_cell_formula_units_Z  2
loop_
  _symmetry_equiv_pos_site_id
 _symmetry_equiv_pos_as_xyz
 1  'x, y, z'
loop_
 _atom_site_type_symbol
 _atom_site_label
 _atom_site_symmetry_multiplicity
 _atom_site_fract_x
 _atom_site_fract_y
 _atom_site_fract_z
 _atom_site_fract_occupancy
 Na  Na1  1  0.17357  0.34715  0.25000  1
 Na  Na2  1  0.65285  0.82643  0.25000  1
 Na  Na3  1  0.17357  0.82643  0.25000  1
 Na  Na4  1  0.82643  0.65285  0.75000  1
 Na  Na5  1  0.34715  0.17357  0.75000  1
 Na  Na6  1  0.82643  0.17357  0.75000  1
 Tl  Tl1  1  0.33333  0.66667  0.75000  1
 Tl  Tl2  1  0.66667  0.33333  0.25000  1
