CIF file written using JARVIS-Tools package.
data_PaSi3
_symmetry_space_group_name_H-M  'P6_3/mmc'
_cell_length_a       5.93629
_cell_length_b       5.93629
_cell_length_c       4.57355
_cell_angle_alpha    90
_cell_angle_beta     90
_cell_angle_gamma    120

_symmetry_Int_Tables_number  194
_chemical_formula_structural  PaSi3
_chemical_formula_sum  Pa2Si6
_cell_volume  139.57712464678733
_cell_formula_units_Z  2
loop_
  _symmetry_equiv_pos_site_id
 _symmetry_equiv_pos_as_xyz
 1  'x, y, z'
loop_
 _atom_site_type_symbol
 _atom_site_label
 _atom_site_symmetry_multiplicity
 _atom_site_fract_x
 _atom_site_fract_y
 _atom_site_fract_z
 _atom_site_fract_occupancy
 Pa  Pa1  1  0.66667  0.33333  0.25000  1
 Pa  Pa2  1  0.33333  0.66667  0.75000  1
 Si  Si1  1  0.85588  0.14412  0.75000  1
 Si  Si2  1  0.28825  0.14412  0.75000  1
 Si  Si3  1  0.85588  0.71175  0.75000  1
 Si  Si4  1  0.14412  0.85588  0.25000  1
 Si  Si5  1  0.71175  0.85588  0.25000  1
 Si  Si6  1  0.14412  0.28825  0.25000  1
