CIF file written using JARVIS-Tools package.
data_NiGeN2
_symmetry_space_group_name_H-M  'Pna2_1'
_cell_length_a       5.3826
_cell_length_b       6.43604
_cell_length_c       5.16433
_cell_angle_alpha    90
_cell_angle_beta     90
_cell_angle_gamma    90

_symmetry_Int_Tables_number  33
_chemical_formula_structural  NiGeN2
_chemical_formula_sum  Ni4Ge4N8
_cell_volume  178.9060453858608
_cell_formula_units_Z  4
loop_
  _symmetry_equiv_pos_site_id
 _symmetry_equiv_pos_as_xyz
 1  'x, y, z'
loop_
 _atom_site_type_symbol
 _atom_site_label
 _atom_site_symmetry_multiplicity
 _atom_site_fract_x
 _atom_site_fract_y
 _atom_site_fract_z
 _atom_site_fract_occupancy
 Ge  Ge1  1  0.57822  0.37566  0.99844  1
 Ge  Ge2  1  0.42178  0.62434  0.49844  1
 Ge  Ge3  1  0.92178  0.87566  0.49844  1
 Ge  Ge4  1  0.07822  0.12434  0.99844  1
 N  N1  1  0.57310  0.38542  0.36359  1
 N  N2  1  0.42690  0.61458  0.86359  1
 N  N3  1  0.92690  0.88542  0.86359  1
 N  N4  1  0.07310  0.11458  0.36359  1
 N  N5  1  0.59199  0.86282  0.38195  1
 N  N6  1  0.40801  0.13718  0.88195  1
 N  N7  1  0.90801  0.36282  0.88195  1
 N  N8  1  0.09199  0.63718  0.38195  1
 Ni  Ni1  1  0.57610  0.87695  0.99702  1
 Ni  Ni2  1  0.42390  0.12305  0.49702  1
 Ni  Ni3  1  0.92390  0.37695  0.49702  1
 Ni  Ni4  1  0.07610  0.62305  0.99702  1
