CIF file written using JARVIS-Tools package.
data_Ca4RuN4
_symmetry_space_group_name_H-M  'P-1'
_cell_length_a       6.04687
_cell_length_b       6.00674
_cell_length_c       8.65714
_cell_angle_alpha    68.4173
_cell_angle_beta     78.2241
_cell_angle_gamma    69.5782

_symmetry_Int_Tables_number  2
_chemical_formula_structural  Ca4RuN4
_chemical_formula_sum  Ca8Ru2N8
_cell_volume  272.98376328440736
_cell_formula_units_Z  2
loop_
  _symmetry_equiv_pos_site_id
 _symmetry_equiv_pos_as_xyz
 1  'x, y, z'
loop_
 _atom_site_type_symbol
 _atom_site_label
 _atom_site_symmetry_multiplicity
 _atom_site_fract_x
 _atom_site_fract_y
 _atom_site_fract_z
 _atom_site_fract_occupancy
 Ca  Ca1  1  0.78364  0.58224  0.15304  1
 Ca  Ca2  1  0.21636  0.41776  0.84696  1
 Ca  Ca3  1  0.72584  0.21008  0.98113  1
 Ca  Ca4  1  0.27416  0.78992  0.01887  1
 Ca  Ca5  1  0.73325  0.48786  0.56923  1
 Ca  Ca6  1  0.26675  0.51214  0.43077  1
 Ca  Ca7  1  0.20904  0.95274  0.62101  1
 Ca  Ca8  1  0.79096  0.04726  0.37899  1
 N  N1  1  0.47977  0.37895  0.20298  1
 N  N2  1  0.52023  0.62105  0.79702  1
 N  N3  1  0.05373  0.15504  0.11117  1
 N  N4  1  0.94627  0.84496  0.88883  1
 N  N5  1  0.49197  0.16916  0.66377  1
 N  N6  1  0.98182  0.68300  0.61762  1
 N  N7  1  0.50803  0.83084  0.33623  1
 N  N8  1  0.01818  0.31700  0.38238  1
 Ru  Ru1  1  0.70091  0.85872  0.75708  1
 Ru  Ru2  1  0.29909  0.14128  0.24292  1
