CIF file written using JARVIS-Tools package.
data_InGeN2
_symmetry_space_group_name_H-M  'Pna2_1'
_cell_length_a       5.98756
_cell_length_b       7.18519
_cell_length_c       5.22027
_cell_angle_alpha    90
_cell_angle_beta     90
_cell_angle_gamma    90

_symmetry_Int_Tables_number  33
_chemical_formula_structural  InGeN2
_chemical_formula_sum  In4Ge4N8
_cell_volume  224.58518780605982
_cell_formula_units_Z  4
loop_
  _symmetry_equiv_pos_site_id
 _symmetry_equiv_pos_as_xyz
 1  'x, y, z'
loop_
 _atom_site_type_symbol
 _atom_site_label
 _atom_site_symmetry_multiplicity
 _atom_site_fract_x
 _atom_site_fract_y
 _atom_site_fract_z
 _atom_site_fract_occupancy
 Ge  Ge1  1  0.52693  0.37089  0.00236  1
 Ge  Ge2  1  0.47307  0.62911  0.50236  1
 Ge  Ge3  1  0.97307  0.87089  0.50236  1
 Ge  Ge4  1  0.02693  0.12911  0.00236  1
 In  In1  1  0.59713  0.88624  0.00780  1
 In  In2  1  0.40287  0.11376  0.50780  1
 In  In3  1  0.90287  0.38624  0.50780  1
 In  In4  1  0.09713  0.61376  0.00780  1
 N  N1  1  0.52936  0.38949  0.35979  1
 N  N2  1  0.47064  0.61051  0.85979  1
 N  N3  1  0.97064  0.88949  0.85979  1
 N  N4  1  0.02936  0.11051  0.35979  1
 N  N5  1  0.72164  0.75795  0.37105  1
 N  N6  1  0.27836  0.24205  0.87105  1
 N  N7  1  0.77836  0.25795  0.87105  1
 N  N8  1  0.22164  0.74205  0.37105  1
