CIF file written using JARVIS-Tools package.
data_ZnBO
_symmetry_space_group_name_H-M  'Amm2'
_cell_length_a       4.80319
_cell_length_b       3.21807
_cell_length_c       3.11082
_cell_angle_alpha    90
_cell_angle_beta     90
_cell_angle_gamma    70.4432

_symmetry_Int_Tables_number  38
_chemical_formula_structural  ZnBO
_chemical_formula_sum  ZnBO
_cell_volume  45.30987675263927
_cell_formula_units_Z  1
loop_
  _symmetry_equiv_pos_site_id
 _symmetry_equiv_pos_as_xyz
 1  'x, y, z'
loop_
 _atom_site_type_symbol
 _atom_site_label
 _atom_site_symmetry_multiplicity
 _atom_site_fract_x
 _atom_site_fract_y
 _atom_site_fract_z
 _atom_site_fract_occupancy
 B  B1  1  -0.28931  -0.07408  0.00000  1
 O  O1  1  0.43181  0.06532  0.00000  1
 Zn  Zn1  1  0.01209  0.27533  0.00000  1
