CIF file written using JARVIS-Tools package.
data_MgGaMoS4
_symmetry_space_group_name_H-M  'Imm2'
_cell_length_a       7.37388
_cell_length_b       7.38673
_cell_length_c       7.38649
_cell_angle_alpha    55.8013
_cell_angle_beta     60.0595
_cell_angle_gamma    60.0574

_symmetry_Int_Tables_number  44
_chemical_formula_structural  MgGaMoS4
_chemical_formula_sum  Mg2Ga2Mo2S8
_cell_volume  274.6173777919206
_cell_formula_units_Z  2
loop_
  _symmetry_equiv_pos_site_id
 _symmetry_equiv_pos_as_xyz
 1  'x, y, z'
loop_
 _atom_site_type_symbol
 _atom_site_label
 _atom_site_symmetry_multiplicity
 _atom_site_fract_x
 _atom_site_fract_y
 _atom_site_fract_z
 _atom_site_fract_occupancy
 Ga  Ga1  1  0.50405  0.48692  0.48692  1
 Ga  Ga2  1  0.02214  0.48692  0.48692  1
 Mg  Mg1  1  0.86180  0.88820  0.88819  1
 Mg  Mg2  1  0.10967  0.14029  0.14029  1
 Mo  Mo1  1  0.49755  0.55199  -0.04708  1
 Mo  Mo2  1  0.49755  -0.04709  0.55200  1
 S  S1  1  0.78085  0.72982  0.72984  1
 S  S2  1  0.27392  0.22255  0.72965  1
 S  S3  1  0.27388  0.72965  0.22257  1
 S  S4  1  0.70783  0.26173  0.26174  1
 S  S5  1  0.72131  0.29821  0.75920  1
 S  S6  1  0.25948  0.72986  0.72983  1
 S  S7  1  0.26868  0.26173  0.26172  1
 S  S8  1  0.72129  0.75922  0.29821  1
