CIF file written using JARVIS-Tools package.
data_Sm2Mg
_symmetry_space_group_name_H-M  'I4/mmm'
_cell_length_a       7.25085
_cell_length_b       7.25085
_cell_length_c       7.25563
_cell_angle_alpha    75.5103
_cell_angle_beta     75.5103
_cell_angle_gamma    28.9694

_symmetry_Int_Tables_number  139
_chemical_formula_structural  Sm2Mg
_chemical_formula_sum  Sm4Mg2
_cell_volume  178.48292400158394
_cell_formula_units_Z  2
loop_
  _symmetry_equiv_pos_site_id
 _symmetry_equiv_pos_as_xyz
 1  'x, y, z'
loop_
 _atom_site_type_symbol
 _atom_site_label
 _atom_site_symmetry_multiplicity
 _atom_site_fract_x
 _atom_site_fract_y
 _atom_site_fract_z
 _atom_site_fract_occupancy
 Mg  Mg1  1  0.49999  0.49999  0.74999  1
 Mg  Mg2  1  0.50001  0.50001  0.25001  1
 Sm  Sm1  1  0.83978  0.83978  0.58009  1
 Sm  Sm2  1  0.16022  0.16022  0.41991  1
 Sm  Sm3  1  0.83979  0.83979  0.08009  1
 Sm  Sm4  1  0.16021  0.16021  0.91991  1
