CIF file written using JARVIS-Tools package.
data_DyMgVS4
_symmetry_space_group_name_H-M  'Imma'
_cell_length_a       7.66857
_cell_length_b       7.53626
_cell_length_c       7.53631
_cell_angle_alpha    59.6317
_cell_angle_beta     59.4161
_cell_angle_gamma    59.4182

_symmetry_Int_Tables_number  74
_chemical_formula_structural  DyMgVS4
_chemical_formula_sum  Dy2Mg2V2S8
_cell_volume  304.3885743383941
_cell_formula_units_Z  2
loop_
  _symmetry_equiv_pos_site_id
 _symmetry_equiv_pos_as_xyz
 1  'x, y, z'
loop_
 _atom_site_type_symbol
 _atom_site_label
 _atom_site_symmetry_multiplicity
 _atom_site_fract_x
 _atom_site_fract_y
 _atom_site_fract_z
 _atom_site_fract_occupancy
 Dy  Dy1  1  0.50000  0.50000  0.50000  1
 Dy  Dy2  1  0.00000  0.50000  0.50000  1
 Mg  Mg1  1  0.87798  0.87203  0.87202  1
 Mg  Mg2  1  0.12202  0.12797  0.12798  1
 S  S1  1  0.71239  0.75515  0.75515  1
 S  S2  1  0.26692  0.23333  0.73281  1
 S  S3  1  0.26693  0.73281  0.23335  1
 S  S4  1  0.72269  0.24486  0.24484  1
 S  S5  1  0.73307  0.26719  0.76665  1
 S  S6  1  0.27731  0.75514  0.75516  1
 S  S7  1  0.28761  0.24485  0.24486  1
 S  S8  1  0.73309  0.76667  0.26719  1
 V  V1  1  0.50000  0.50000  -0.00000  1
 V  V2  1  0.50000  1.00000  0.50000  1
