CIF file written using JARVIS-Tools package.
data_ZrBO4
_symmetry_space_group_name_H-M  'Cmmm'
_cell_length_a       4.18157
_cell_length_b       4.18157
_cell_length_c       3.76376
_cell_angle_alpha    90
_cell_angle_beta     90
_cell_angle_gamma    108.335

_symmetry_Int_Tables_number  65
_chemical_formula_structural  ZrBO4
_chemical_formula_sum  ZrBO4
_cell_volume  62.47052782473685
_cell_formula_units_Z  1
loop_
  _symmetry_equiv_pos_site_id
 _symmetry_equiv_pos_as_xyz
 1  'x, y, z'
loop_
 _atom_site_type_symbol
 _atom_site_label
 _atom_site_symmetry_multiplicity
 _atom_site_fract_x
 _atom_site_fract_y
 _atom_site_fract_z
 _atom_site_fract_occupancy
 B  B1  1  0.50000  0.50000  0.00000  1
 O  O1  1  0.23685  0.23685  0.00000  1
 O  O2  1  0.29970  0.70030  0.50000  1
 O  O3  1  0.70030  0.29970  0.50000  1
 O  O4  1  0.76316  0.76316  0.00000  1
 Zr  Zr1  1  0.00000  0.00000  0.50000  1
