CIF file written using JARVIS-Tools package.
data_ZrBO4
_symmetry_space_group_name_H-M  'I-4'
_cell_length_a       5.38622
_cell_length_b       5.38622
_cell_length_c       5.38622
_cell_angle_alpha    122.543
_cell_angle_beta     122.543
_cell_angle_gamma    85.6488

_symmetry_Int_Tables_number  82
_chemical_formula_structural  ZrBO4
_chemical_formula_sum  ZrBO4
_cell_volume  105.91287088981
_cell_formula_units_Z  1
loop_
  _symmetry_equiv_pos_site_id
 _symmetry_equiv_pos_as_xyz
 1  'x, y, z'
loop_
 _atom_site_type_symbol
 _atom_site_label
 _atom_site_symmetry_multiplicity
 _atom_site_fract_x
 _atom_site_fract_y
 _atom_site_fract_z
 _atom_site_fract_occupancy
 B  B1  1  0.25000  0.75000  0.50000  1
 O  O1  1  0.56320  0.95907  0.80450  1
 O  O2  1  0.24130  0.43680  0.39587  1
 O  O3  1  0.15457  0.75870  0.19550  1
 O  O4  1  0.04092  0.84543  0.60412  1
 Zr  Zr1  1  0.00000  0.00000  0.00000  1
