CIF file written using JARVIS-Tools package.
data_YMg2Ti3S8
_symmetry_space_group_name_H-M  'R-3m'
_cell_length_a       7.55444
_cell_length_b       7.55439
_cell_length_c       7.55415
_cell_angle_alpha    58.0301
_cell_angle_beta     58.0324
_cell_angle_gamma    58.0283

_symmetry_Int_Tables_number  166
_chemical_formula_structural  YMg2Ti3S8
_chemical_formula_sum  YMg2Ti3S8
_cell_volume  291.0693184893937
_cell_formula_units_Z  1
loop_
  _symmetry_equiv_pos_site_id
 _symmetry_equiv_pos_as_xyz
 1  'x, y, z'
loop_
 _atom_site_type_symbol
 _atom_site_label
 _atom_site_symmetry_multiplicity
 _atom_site_fract_x
 _atom_site_fract_y
 _atom_site_fract_z
 _atom_site_fract_occupancy
 Mg  Mg1  1  0.87175  0.87173  0.87175  1
 Mg  Mg2  1  0.12826  0.12826  0.12826  1
 S  S1  1  0.74075  0.74075  0.74076  1
 S  S2  1  0.24594  0.24592  0.72836  1
 S  S3  1  0.24592  0.72836  0.24591  1
 S  S4  1  0.72835  0.24592  0.24593  1
 S  S5  1  0.75407  0.27164  0.75408  1
 S  S6  1  0.27165  0.75407  0.75406  1
 S  S7  1  0.25926  0.25926  0.25925  1
 S  S8  1  0.75406  0.75408  0.27164  1
 Ti  Ti1  1  0.50001  0.50000  0.99999  1
 Ti  Ti2  1  0.99999  0.50000  0.50001  1
 Ti  Ti3  1  0.50000  0.99999  0.50001  1
 Y  Y1  1  0.50000  0.50000  0.49999  1
