CIF file written using JARVIS-Tools package.
data_Li2MnCuO4
_symmetry_space_group_name_H-M  'I-4m2'
_cell_length_a       4.0453
_cell_length_b       7.64688
_cell_length_c       5.08155
_cell_angle_alpha    104.142
_cell_angle_beta     66.5448
_cell_angle_gamma    105.336

_symmetry_Int_Tables_number  119
_chemical_formula_structural  Li2MnCuO4
_chemical_formula_sum  Li4Mn2Cu2O8
_cell_volume  137.3404402425551
_cell_formula_units_Z  2
loop_
  _symmetry_equiv_pos_site_id
 _symmetry_equiv_pos_as_xyz
 1  'x, y, z'
loop_
 _atom_site_type_symbol
 _atom_site_label
 _atom_site_symmetry_multiplicity
 _atom_site_fract_x
 _atom_site_fract_y
 _atom_site_fract_z
 _atom_site_fract_occupancy
 Cu  Cu1  1  0.74995  0.62496  0.12505  1
 Cu  Cu2  1  0.74991  0.12497  0.62514  1
 Li  Li1  1  0.25022  0.87509  0.37465  1
 Li  Li2  1  0.25022  0.37513  0.87470  1
 Li  Li3  1  0.49999  0.74999  0.75001  1
 Li  Li4  1  0.49974  0.24988  0.25039  1
 Mn  Mn1  1  0.00009  0.50005  0.49986  1
 Mn  Mn2  1  0.00008  0.00004  0.99988  1
 O  O1  1  0.99215  0.24608  0.26177  1
 O  O2  1  0.99222  0.74611  0.76167  1
 O  O3  1  0.50769  0.00385  0.98847  1
 O  O4  1  0.50771  0.50385  0.48843  1
 O  O5  1  0.77432  0.88714  0.33851  1
 O  O6  1  0.77433  0.38718  0.83852  1
 O  O7  1  0.22568  0.11285  0.66149  1
 O  O8  1  0.22569  0.61284  0.16145  1
