CIF file written using JARVIS-Tools package.
data_Ho2Co2I
_symmetry_space_group_name_H-M  'P6_3/mmc'
_cell_length_a       3.91678
_cell_length_b       3.91678
_cell_length_c       16.7629
_cell_angle_alpha    90
_cell_angle_beta     90
_cell_angle_gamma    120

_symmetry_Int_Tables_number  194
_chemical_formula_structural  Ho2Co2I
_chemical_formula_sum  Ho4Co4I2
_cell_volume  222.70872299852377
_cell_formula_units_Z  2
loop_
  _symmetry_equiv_pos_site_id
 _symmetry_equiv_pos_as_xyz
 1  'x, y, z'
loop_
 _atom_site_type_symbol
 _atom_site_label
 _atom_site_symmetry_multiplicity
 _atom_site_fract_x
 _atom_site_fract_y
 _atom_site_fract_z
 _atom_site_fract_occupancy
 Co  Co1  1  0.33333  0.66667  0.50176  1
 Co  Co2  1  0.66667  0.33333  0.49824  1
 Co  Co3  1  0.66667  0.33333  0.00176  1
 Co  Co4  1  0.33333  0.66667  0.99824  1
 Ho  Ho1  1  0.00000  0.00000  0.10317  1
 Ho  Ho2  1  0.00000  0.00000  0.89683  1
 Ho  Ho3  1  0.00000  0.00000  0.60317  1
 Ho  Ho4  1  0.00000  0.00000  0.39683  1
 I  I1  1  0.33333  0.66667  0.25000  1
 I  I2  1  0.66667  0.33333  0.75000  1
