CIF file written using JARVIS-Tools package.
data_LiV3O4
_symmetry_space_group_name_H-M  'Cm'
_cell_length_a       5.30419
_cell_length_b       5.66257
_cell_length_c       4.87476
_cell_angle_alpha    90.0003
_cell_angle_beta     107.206
_cell_angle_gamma    89.9998

_symmetry_Int_Tables_number  8
_chemical_formula_structural  LiV3O4
_chemical_formula_sum  Li2V6O8
_cell_volume  139.86295899812265
_cell_formula_units_Z  2
loop_
  _symmetry_equiv_pos_site_id
 _symmetry_equiv_pos_as_xyz
 1  'x, y, z'
loop_
 _atom_site_type_symbol
 _atom_site_label
 _atom_site_symmetry_multiplicity
 _atom_site_fract_x
 _atom_site_fract_y
 _atom_site_fract_z
 _atom_site_fract_occupancy
 Li  Li1  1  -0.00774  -0.00001  -0.00169  1
 Li  Li2  1  0.49227  0.49999  0.49831  1
 O  O1  1  0.73350  0.24506  0.74088  1
 O  O2  1  0.23350  0.74506  0.24088  1
 O  O3  1  0.23350  0.25494  0.24088  1
 O  O4  1  0.73350  0.75494  0.74088  1
 O  O5  1  0.24079  0.00000  0.73534  1
 O  O6  1  0.74079  0.50000  0.23534  1
 O  O7  1  0.29135  0.50000  0.77684  1
 O  O8  1  0.79135  -0.00000  0.27684  1
 V  V1  1  -0.00682  0.50001  -0.04460  1
 V  V2  1  0.49318  0.00001  0.45541  1
 V  V3  1  0.50771  0.21112  0.02617  1
 V  V4  1  0.50771  0.78888  0.02616  1
 V  V5  1  0.00771  0.28888  0.52617  1
 V  V6  1  0.00771  0.71112  0.52617  1
