CIF file written using JARVIS-Tools package.
data_BaBrO
_symmetry_space_group_name_H-M  'P4mm'
_cell_length_a       4.80255
_cell_length_b       4.80255
_cell_length_c       7.35656
_cell_angle_alpha    90
_cell_angle_beta     90
_cell_angle_gamma    90

_symmetry_Int_Tables_number  99
_chemical_formula_structural  BaBrO
_chemical_formula_sum  BaBrO
_cell_volume  169.67483492627957
_cell_formula_units_Z  1
loop_
  _symmetry_equiv_pos_site_id
 _symmetry_equiv_pos_as_xyz
 1  'x, y, z'
loop_
 _atom_site_type_symbol
 _atom_site_label
 _atom_site_symmetry_multiplicity
 _atom_site_fract_x
 _atom_site_fract_y
 _atom_site_fract_z
 _atom_site_fract_occupancy
 Ba  Ba1  1  0.00000  0.00000  0.40877  1
 Br  Br1  1  0.00000  0.00000  -0.00736  1
 O  O1  1  0.00000  0.00000  0.70438  1
