CIF file written using JARVIS-Tools package.
data_CeAl2Ni
_symmetry_space_group_name_H-M  'Cmcm'
_cell_length_a       5.72852
_cell_length_b       5.72853
_cell_length_c       6.86938
_cell_angle_alpha    90
_cell_angle_beta     90
_cell_angle_gamma    138.428

_symmetry_Int_Tables_number  63
_chemical_formula_structural  CeAl2Ni
_chemical_formula_sum  Ce2Al4Ni2
_cell_volume  149.5832065588223
_cell_formula_units_Z  2
loop_
  _symmetry_equiv_pos_site_id
 _symmetry_equiv_pos_as_xyz
 1  'x, y, z'
loop_
 _atom_site_type_symbol
 _atom_site_label
 _atom_site_symmetry_multiplicity
 _atom_site_fract_x
 _atom_site_fract_y
 _atom_site_fract_z
 _atom_site_fract_occupancy
 Al  Al1  1  0.83352  0.16648  0.05541  1
 Al  Al2  1  0.16648  0.83352  0.94459  1
 Al  Al3  1  0.16648  0.83352  0.55541  1
 Al  Al4  1  0.83352  0.16648  0.44459  1
 Ce  Ce1  1  0.55121  0.44879  0.25000  1
 Ce  Ce2  1  0.44879  0.55121  0.75000  1
 Ni  Ni1  1  0.28162  0.71838  0.25000  1
 Ni  Ni2  1  0.71838  0.28162  0.75000  1
