CIF file written using JARVIS-Tools package.
data_SF
_symmetry_space_group_name_H-M  'I4/mmm'
_cell_length_a       3.16732
_cell_length_b       3.16732
_cell_length_c       6.77569
_cell_angle_alpha    90
_cell_angle_beta     90
_cell_angle_gamma    90

_symmetry_Int_Tables_number  139
_chemical_formula_structural  SF
_chemical_formula_sum  S2F2
_cell_volume  67.97329939489889
_cell_formula_units_Z  2
loop_
  _symmetry_equiv_pos_site_id
 _symmetry_equiv_pos_as_xyz
 1  'x, y, z'
loop_
 _atom_site_type_symbol
 _atom_site_label
 _atom_site_symmetry_multiplicity
 _atom_site_fract_x
 _atom_site_fract_y
 _atom_site_fract_z
 _atom_site_fract_occupancy
 F  F1  1  0.00000  0.00000  0.74993  1
 F  F2  1  0.50000  0.50000  0.25007  1
 S  S1  1  0.00000  0.00000  0.24990  1
 S  S2  1  0.50000  0.50000  0.75010  1
