CIF file written using JARVIS-Tools package.
data_Li2V3TeO8
_symmetry_space_group_name_H-M  'R3m'
_cell_length_a       5.84983
_cell_length_b       10.132
_cell_length_c       6.27698
_cell_angle_alpha    105.606
_cell_angle_beta     62.2257
_cell_angle_gamma    90.0008

_symmetry_Int_Tables_number  160
_chemical_formula_structural  Li2V3TeO8
_chemical_formula_sum  Li4V6Te2O6
_cell_volume  313.59306915005595
_cell_formula_units_Z  2
loop_
  _symmetry_equiv_pos_site_id
 _symmetry_equiv_pos_as_xyz
 1  'x, y, z'
loop_
 _atom_site_type_symbol
 _atom_site_label
 _atom_site_symmetry_multiplicity
 _atom_site_fract_x
 _atom_site_fract_y
 _atom_site_fract_z
 _atom_site_fract_occupancy
 Li  Li1  1  0.31630  0.56123  0.36740  1
 Li  Li2  1  0.81630  0.06123  0.36740  1
 Li  Li3  1  0.18642  0.93786  0.62716  1
 Li  Li4  1  0.68644  0.43786  0.62715  1
 O  O1  1  0.10902  0.63033  0.78198  1
 O  O2  1  0.61224  0.63995  0.77552  1
 O  O3  1  0.40708  0.86431  0.18584  1
 O  O4  1  0.90708  0.36431  0.18583  1
 O  O5  1  0.88889  0.86145  0.22221  1
 O  O6  1  0.38890  0.36144  0.22221  1
 O  O7  1  0.60901  0.13033  0.78197  1
 O  O8  1  0.62553  0.12482  0.22219  1
 O  O9  1  0.15228  0.12483  0.22222  1
 O  O10  1  0.84620  0.87390  0.77549  1
 O  O11  1  0.34621  0.37391  0.77552  1
 O  O12  1  0.87831  0.37390  0.77549  1
 O  O13  1  0.12549  0.62483  0.22223  1
 O  O14  1  0.65228  0.62482  0.22219  1
 O  O15  1  0.37828  0.87391  0.77552  1
 O  O16  1  0.11224  0.13995  0.77552  1
 Te  Te1  1  0.23670  0.25444  0.52663  1
 Te  Te2  1  0.73667  0.75444  0.52663  1
 V  V1  1  0.25941  0.24687  0.00596  1
 V  V2  1  0.23463  0.74687  0.00596  1
 V  V3  1  0.75941  0.74686  0.00595  1
 V  V4  1  0.49701  0.00926  0.00595  1
 V  V5  1  0.73464  0.24686  0.00595  1
 V  V6  1  -0.00297  0.50925  0.00595  1
