CIF file written using JARVIS-Tools package.
data_AuCl4
_symmetry_space_group_name_H-M  'I4_1/amd'
_cell_length_a       7.36795
_cell_length_b       7.36795
_cell_length_c       7.36795
_cell_angle_alpha    119.681
_cell_angle_beta     119.681
_cell_angle_gamma    90.5527

_symmetry_Int_Tables_number  141
_chemical_formula_structural  AuCl4
_chemical_formula_sum  Au2Cl8
_cell_volume  284.1776153482183
_cell_formula_units_Z  2
loop_
  _symmetry_equiv_pos_site_id
 _symmetry_equiv_pos_as_xyz
 1  'x, y, z'
loop_
 _atom_site_type_symbol
 _atom_site_label
 _atom_site_symmetry_multiplicity
 _atom_site_fract_x
 _atom_site_fract_y
 _atom_site_fract_z
 _atom_site_fract_occupancy
 Au  Au1  1  0.00000  0.00000  0.00000  1
 Au  Au2  1  0.75000  0.25000  0.50000  1
 Cl  Cl1  1  0.48800  0.29507  0.19293  1
 Cl  Cl2  1  0.10214  0.29507  0.80707  1
 Cl  Cl3  1  0.04507  0.35214  0.30707  1
 Cl  Cl4  1  0.64786  -0.04507  0.69293  1
 Cl  Cl5  1  0.26200  -0.04507  0.30707  1
 Cl  Cl6  1  0.04507  0.73800  0.69293  1
 Cl  Cl7  1  0.70493  -0.10214  0.19293  1
 Cl  Cl8  1  0.70493  0.51200  0.80707  1
