CIF file written using JARVIS-Tools package.
data_CaCoGe2O6
_symmetry_space_group_name_H-M  'C2/c'
_cell_length_a       5.4158
_cell_length_b       6.79498
_cell_length_c       6.79504
_cell_angle_alpha    81.8596
_cell_angle_beta     79.3332
_cell_angle_gamma    79.3361

_symmetry_Int_Tables_number  15
_chemical_formula_structural  CaCoGe2O6
_chemical_formula_sum  Ca2Co2Ge4O2
_cell_volume  239.99779417077175
_cell_formula_units_Z  2
loop_
  _symmetry_equiv_pos_site_id
 _symmetry_equiv_pos_as_xyz
 1  'x, y, z'
loop_
 _atom_site_type_symbol
 _atom_site_label
 _atom_site_symmetry_multiplicity
 _atom_site_fract_x
 _atom_site_fract_y
 _atom_site_fract_z
 _atom_site_fract_occupancy
 Ca  Ca1  1  0.24999  0.30680  0.69320  1
 Ca  Ca2  1  0.75001  0.69320  0.30680  1
 Co  Co1  1  0.74998  0.08454  0.91546  1
 Co  Co2  1  0.25002  0.91546  0.08454  1
 Ge  Ge1  1  0.22559  0.81703  0.61337  1
 Ge  Ge2  1  0.27442  0.38662  0.18299  1
 Ge  Ge3  1  0.77442  0.18297  0.38663  1
 Ge  Ge4  1  0.72558  0.61338  0.81702  1
 O  O1  1  0.13326  0.98539  0.79693  1
 O  O2  1  0.02306  0.32706  0.39377  1
 O  O3  1  0.86674  0.01461  0.20307  1
 O  O4  1  0.63327  0.79692  0.98539  1
 O  O5  1  0.36673  0.20308  0.01461  1
 O  O6  1  0.97695  0.67294  0.60623  1
 O  O7  1  0.65054  0.09735  0.63255  1
 O  O8  1  0.84943  0.36745  0.90264  1
 O  O9  1  0.34946  0.90265  0.36745  1
 O  O10  1  0.52306  0.39376  0.32706  1
 O  O11  1  0.15057  0.63255  0.09736  1
 O  O12  1  0.47694  0.60625  0.67293  1
