CIF file written using JARVIS-Tools package.
data_BaCdSe
_symmetry_space_group_name_H-M  'Amm2'
_cell_length_a       7.00837
_cell_length_b       4.49862
_cell_length_c       4.78668
_cell_angle_alpha    90
_cell_angle_beta     90
_cell_angle_gamma    108.676

_symmetry_Int_Tables_number  38
_chemical_formula_structural  BaCdSe
_chemical_formula_sum  BaCdSe
_cell_volume  142.96746217053362
_cell_formula_units_Z  1
loop_
  _symmetry_equiv_pos_site_id
 _symmetry_equiv_pos_as_xyz
 1  'x, y, z'
loop_
 _atom_site_type_symbol
 _atom_site_label
 _atom_site_symmetry_multiplicity
 _atom_site_fract_x
 _atom_site_fract_y
 _atom_site_fract_z
 _atom_site_fract_occupancy
 Ba  Ba1  1  -0.17907  -0.20947  0.00000  1
 Cd  Cd1  1  0.41220  0.08620  0.00000  1
 Se  Se1  1  0.14091  0.45035  0.00000  1
