CIF file written using JARVIS-Tools package.
data_YMnCo
_symmetry_space_group_name_H-M  'Imma'
_cell_length_a       5.07187
_cell_length_b       5.07187
_cell_length_c       5.07187
_cell_angle_alpha    87.1821
_cell_angle_beta     62.515
_cell_angle_gamma    119.296

_symmetry_Int_Tables_number  74
_chemical_formula_structural  YMnCo
_chemical_formula_sum  Y2Mn2Co2
_cell_volume  94.34808127921391
_cell_formula_units_Z  2
loop_
  _symmetry_equiv_pos_site_id
 _symmetry_equiv_pos_as_xyz
 1  'x, y, z'
loop_
 _atom_site_type_symbol
 _atom_site_label
 _atom_site_symmetry_multiplicity
 _atom_site_fract_x
 _atom_site_fract_y
 _atom_site_fract_z
 _atom_site_fract_occupancy
 Co  Co1  1  0.75000  0.37500  0.87500  1
 Co  Co2  1  0.25000  0.37500  0.37500  1
 Mn  Mn1  1  0.25000  0.87500  0.37500  1
 Mn  Mn2  1  0.75000  0.37500  0.37500  1
 Y  Y1  1  0.50000  0.74730  0.75270  1
 Y  Y2  1  -0.00000  0.00270  0.99730  1
