CIF file written using JARVIS-Tools package.
data_SF2
_symmetry_space_group_name_H-M  'Pm'
_cell_length_a       4.04499
_cell_length_b       3.13223
_cell_length_c       3.86293
_cell_angle_alpha    90
_cell_angle_beta     89.9006
_cell_angle_gamma    90

_symmetry_Int_Tables_number  6
_chemical_formula_structural  SF2
_chemical_formula_sum  SF2
_cell_volume  48.942643807250434
_cell_formula_units_Z  1
loop_
  _symmetry_equiv_pos_site_id
 _symmetry_equiv_pos_as_xyz
 1  'x, y, z'
loop_
 _atom_site_type_symbol
 _atom_site_label
 _atom_site_symmetry_multiplicity
 _atom_site_fract_x
 _atom_site_fract_y
 _atom_site_fract_z
 _atom_site_fract_occupancy
 F  F1  1  -0.35071  0.00000  -0.48616  1
 F  F2  1  0.08010  0.00000  -0.05247  1
 S  S1  1  0.67061  0.00000  -0.06138  1
