CIF file written using JARVIS-Tools package.
data_Li3MoP2O9
_symmetry_space_group_name_H-M  'P1'
_cell_length_a       7.12027
_cell_length_b       7.0703
_cell_length_c       7.8733
_cell_angle_alpha    88.8834
_cell_angle_beta     116.209
_cell_angle_gamma    92.7744

_symmetry_Int_Tables_number  1
_chemical_formula_structural  Li3MoP2O9
_chemical_formula_sum  Li6Mo2P4O8
_cell_volume  355.194657758465
_cell_formula_units_Z  2
loop_
  _symmetry_equiv_pos_site_id
 _symmetry_equiv_pos_as_xyz
 1  'x, y, z'
loop_
 _atom_site_type_symbol
 _atom_site_label
 _atom_site_symmetry_multiplicity
 _atom_site_fract_x
 _atom_site_fract_y
 _atom_site_fract_z
 _atom_site_fract_occupancy
 Li  Li1  1  0.95360  0.76056  0.82129  1
 Li  Li2  1  0.00096  0.49489  0.50589  1
 Li  Li3  1  0.44657  0.34619  0.74543  1
 Li  Li4  1  0.55906  0.66077  0.25646  1
 Li  Li5  1  0.15695  0.25186  0.17799  1
 Li  Li6  1  0.77142  -0.00680  0.00098  1
 Mo  Mo1  1  0.49032  0.00320  0.49173  1
 Mo  Mo2  1  -0.00287  0.99632  0.50539  1
 O  O1  1  0.10766  0.48207  0.25440  1
 O  O2  1  0.50414  0.76109  0.02282  1
 O  O3  1  0.34585  0.77121  0.34548  1
 O  O4  1  0.95199  0.19186  0.93371  1
 O  O5  1  0.23047  0.08623  0.46786  1
 O  O6  1  0.00257  0.75343  0.38429  1
 O  O7  1  -0.00873  0.23390  0.62894  1
 O  O8  1  0.80782  0.10549  0.25590  1
 O  O9  1  0.69014  0.42747  0.29772  1
 O  O10  1  0.53179  0.88170  0.73696  1
 O  O11  1  0.98998  0.79977  0.06549  1
 O  O12  1  0.63159  0.24105  0.63541  1
 O  O13  1  0.31733  0.57438  0.70425  1
 O  O14  1  0.17772  0.87690  0.74892  1
 O  O15  1  0.89826  0.51375  0.74778  1
 O  O16  1  0.45224  0.14110  0.25785  1
 O  O17  1  0.51784  0.24116  0.97773  1
 O  O18  1  0.75218  0.91152  0.52929  1
 P  P1  1  0.87464  0.30167  0.75022  1
 P  P2  1  0.61527  0.24243  0.18960  1
 P  P3  1  0.10447  0.69443  0.24910  1
 P  P4  1  0.38693  0.76041  0.81110  1
