CIF file written using JARVIS-Tools package.
data_BaIO
_symmetry_space_group_name_H-M  'Pm'
_cell_length_a       7.17271
_cell_length_b       5.59537
_cell_length_c       4.94175
_cell_angle_alpha    90
_cell_angle_beta     90
_cell_angle_gamma    137.954

_symmetry_Int_Tables_number  6
_chemical_formula_structural  BaIO
_chemical_formula_sum  BaIO
_cell_volume  132.82812746374034
_cell_formula_units_Z  1
loop_
  _symmetry_equiv_pos_site_id
 _symmetry_equiv_pos_as_xyz
 1  'x, y, z'
loop_
 _atom_site_type_symbol
 _atom_site_label
 _atom_site_symmetry_multiplicity
 _atom_site_fract_x
 _atom_site_fract_y
 _atom_site_fract_z
 _atom_site_fract_occupancy
 Ba  Ba1  1  0.32740  0.11427  0.00000  1
 I  I1  1  0.84949  0.18127  0.00000  1
 O  O1  1  0.82311  0.70446  0.00000  1
