CIF file written using JARVIS-Tools package.
data_NaVO3
_symmetry_space_group_name_H-M  'Pnma'
_cell_length_a       3.61512
_cell_length_b       5.26757
_cell_length_c       14.3633
_cell_angle_alpha    90
_cell_angle_beta     90
_cell_angle_gamma    90

_symmetry_Int_Tables_number  62
_chemical_formula_structural  NaVO3
_chemical_formula_sum  Na4V4O2
_cell_volume  273.5184966152909
_cell_formula_units_Z  4
loop_
  _symmetry_equiv_pos_site_id
 _symmetry_equiv_pos_as_xyz
 1  'x, y, z'
loop_
 _atom_site_type_symbol
 _atom_site_label
 _atom_site_symmetry_multiplicity
 _atom_site_fract_x
 _atom_site_fract_y
 _atom_site_fract_z
 _atom_site_fract_occupancy
 Na  Na1  1  0.25000  0.86641  0.33029  1
 Na  Na2  1  0.75000  0.13359  0.66971  1
 Na  Na3  1  0.75000  0.36641  0.16971  1
 Na  Na4  1  0.25000  0.63359  0.83029  1
 O  O1  1  0.25000  0.43560  0.68737  1
 O  O2  1  0.25000  0.06440  0.18737  1
 O  O3  1  0.25000  0.49350  0.44749  1
 O  O4  1  0.75000  0.50650  0.55251  1
 O  O5  1  0.75000  0.10093  0.39607  1
 O  O6  1  0.75000  -0.00650  0.05251  1
 O  O7  1  0.75000  0.56440  0.31263  1
 O  O8  1  0.25000  0.89907  0.60393  1
 O  O9  1  0.75000  0.39907  0.89607  1
 O  O10  1  0.25000  0.60093  0.10393  1
 O  O11  1  0.75000  0.93560  0.81263  1
 O  O12  1  0.25000  0.00650  0.94749  1
 V  V1  1  0.75000  0.41084  0.41550  1
 V  V2  1  0.25000  0.58916  0.58450  1
 V  V3  1  0.25000  0.91084  0.08450  1
 V  V4  1  0.75000  0.08916  0.91550  1
