CIF file written using JARVIS-Tools package.
data_UCuSi2Ni
_symmetry_space_group_name_H-M  'I-4m2'
_cell_length_a       5.61322
_cell_length_b       5.61321
_cell_length_c       5.61322
_cell_angle_alpha    138.652
_cell_angle_beta     138.652
_cell_angle_gamma    59.9063

_symmetry_Int_Tables_number  119
_chemical_formula_structural  UCuSi2Ni
_chemical_formula_sum  UCuSi2Ni
_cell_volume  76.4027339531652
_cell_formula_units_Z  1
loop_
  _symmetry_equiv_pos_site_id
 _symmetry_equiv_pos_as_xyz
 1  'x, y, z'
loop_
 _atom_site_type_symbol
 _atom_site_label
 _atom_site_symmetry_multiplicity
 _atom_site_fract_x
 _atom_site_fract_y
 _atom_site_fract_z
 _atom_site_fract_occupancy
 Cu  Cu1  1  0.25000  0.75000  0.50000  1
 Ni  Ni1  1  0.75000  0.25000  0.50000  1
 Si  Si1  1  0.62056  0.62056  0.00000  1
 Si  Si2  1  0.37944  0.37944  0.00000  1
 U  U1  1  0.00000  0.00000  0.00000  1
