CIF file written using JARVIS-Tools package.
data_NaNiAsO4
_symmetry_space_group_name_H-M  'R-3'
_cell_length_a       4.97815
_cell_length_b       9.29694
_cell_length_c       8.62266
_cell_angle_alpha    108.008
_cell_angle_beta     89.9996
_cell_angle_gamma    90.0003

_symmetry_Int_Tables_number  148
_chemical_formula_structural  NaNiAsO4
_chemical_formula_sum  Na4Ni4As4O6
_cell_volume  379.5210601908233
_cell_formula_units_Z  4
loop_
  _symmetry_equiv_pos_site_id
 _symmetry_equiv_pos_as_xyz
 1  'x, y, z'
loop_
 _atom_site_type_symbol
 _atom_site_label
 _atom_site_symmetry_multiplicity
 _atom_site_fract_x
 _atom_site_fract_y
 _atom_site_fract_z
 _atom_site_fract_occupancy
 As  As1  1  0.50000  0.69893  0.06631  1
 As  As2  1  0.50000  0.30107  0.93369  1
 As  As3  1  0.00000  0.30107  0.43369  1
 As  As4  1  -0.00000  0.69893  0.56631  1
 Na  Na1  1  0.50000  0.13989  0.21326  1
 Na  Na2  1  -0.00000  0.86011  0.28674  1
 Na  Na3  1  0.50000  0.86011  0.78674  1
 Na  Na4  1  0.00000  0.13989  0.71326  1
 Ni  Ni1  1  0.00000  0.49320  0.16440  1
 Ni  Ni2  1  -0.00000  0.50680  0.83560  1
 Ni  Ni3  1  0.50000  0.49320  0.66440  1
 Ni  Ni4  1  0.50000  0.50680  0.33560  1
 O  O1  1  0.66457  0.36236  0.44942  1
 O  O2  1  0.50000  0.11057  0.87021  1
 O  O3  1  0.33934  0.63763  0.87582  1
 O  O4  1  0.50000  0.88943  0.12979  1
 O  O5  1  1.00000  0.88943  0.62979  1
 O  O6  1  0.16457  0.36236  0.94942  1
 O  O7  1  0.00000  0.11057  0.37021  1
 O  O8  1  0.32524  0.63764  0.21125  1
 O  O9  1  0.66066  0.36237  0.12418  1
 O  O10  1  0.16066  0.36237  0.62418  1
 O  O11  1  0.67476  0.36235  0.78875  1
 O  O12  1  0.17476  0.36236  0.28875  1
 O  O13  1  0.83543  0.63764  0.05058  1
 O  O14  1  0.82524  0.63765  0.71125  1
 O  O15  1  0.33543  0.63764  0.55058  1
 O  O16  1  0.83934  0.63763  0.37582  1
