CIF file written using JARVIS-Tools package.
data_Ti3Nb
_symmetry_space_group_name_H-M  'Amm2'
_cell_length_a       2.86806
_cell_length_b       2.86805
_cell_length_c       8.99908
_cell_angle_alpha    90
_cell_angle_beta     90
_cell_angle_gamma    111.189

_symmetry_Int_Tables_number  38
_chemical_formula_structural  Ti3Nb
_chemical_formula_sum  Ti3Nb
_cell_volume  69.01974577967476
_cell_formula_units_Z  1
loop_
  _symmetry_equiv_pos_site_id
 _symmetry_equiv_pos_as_xyz
 1  'x, y, z'
loop_
 _atom_site_type_symbol
 _atom_site_label
 _atom_site_symmetry_multiplicity
 _atom_site_fract_x
 _atom_site_fract_y
 _atom_site_fract_z
 _atom_site_fract_occupancy
 Nb  Nb1  1  0.25912  0.74088  0.50000  1
 Ti  Ti1  1  0.17787  0.82213  0.00000  1
 Ti  Ti2  1  0.78151  0.21849  0.75348  1
 Ti  Ti3  1  0.78151  0.21849  0.24652  1
