CIF file written using JARVIS-Tools package.
data_BaSbI2
_symmetry_space_group_name_H-M  'Pmm2'
_cell_length_a       4.33901
_cell_length_b       5.22624
_cell_length_c       7.08652
_cell_angle_alpha    90
_cell_angle_beta     90
_cell_angle_gamma    90

_symmetry_Int_Tables_number  25
_chemical_formula_structural  BaSbI2
_chemical_formula_sum  BaSbI2
_cell_volume  160.69876597029625
_cell_formula_units_Z  1
loop_
  _symmetry_equiv_pos_site_id
 _symmetry_equiv_pos_as_xyz
 1  'x, y, z'
loop_
 _atom_site_type_symbol
 _atom_site_label
 _atom_site_symmetry_multiplicity
 _atom_site_fract_x
 _atom_site_fract_y
 _atom_site_fract_z
 _atom_site_fract_occupancy
 Ba  Ba1  1  0.50000  0.50000  0.73958  1
 I  I1  1  0.00000  0.00000  0.95890  1
 I  I2  1  0.50000  0.50000  0.25160  1
 Sb  Sb1  1  0.00000  0.00000  0.54991  1
