CIF file written using JARVIS-Tools package.
data_TmMoClO4
_symmetry_space_group_name_H-M  'C2/m'
_cell_length_a       6.20767
_cell_length_b       6.20767
_cell_length_c       6.78687
_cell_angle_alpha    75.727
_cell_angle_beta     75.7271
_cell_angle_gamma    70.3629

_symmetry_Int_Tables_number  12
_chemical_formula_structural  TmMoClO4
_chemical_formula_sum  Tm2Mo2Cl2O8
_cell_volume  234.8490915102896
_cell_formula_units_Z  2
loop_
  _symmetry_equiv_pos_site_id
 _symmetry_equiv_pos_as_xyz
 1  'x, y, z'
loop_
 _atom_site_type_symbol
 _atom_site_label
 _atom_site_symmetry_multiplicity
 _atom_site_fract_x
 _atom_site_fract_y
 _atom_site_fract_z
 _atom_site_fract_occupancy
 Cl  Cl1  1  0.99112  0.99112  0.76258  1
 Cl  Cl2  1  0.00888  0.00888  0.23742  1
 Mo  Mo1  1  0.36259  0.36259  0.26976  1
 Mo  Mo2  1  0.63741  0.63741  0.73024  1
 O  O1  1  0.70501  0.70501  0.46123  1
 O  O2  1  0.29499  0.29499  0.53877  1
 O  O3  1  0.50901  0.89352  0.84549  1
 O  O4  1  0.45565  0.45565  0.80132  1
 O  O5  1  0.10648  0.49099  0.15451  1
 O  O6  1  0.89352  0.50901  0.84549  1
 O  O7  1  0.54435  0.54435  0.19868  1
 O  O8  1  0.49099  0.10648  0.15451  1
 Tm  Tm1  1  0.77822  0.77822  0.10879  1
 Tm  Tm2  1  0.22178  0.22178  0.89121  1
