CIF file written using JARVIS-Tools package.
data_Y3CuSiSe7
_symmetry_space_group_name_H-M  'P6_3'
_cell_length_a       10.3237
_cell_length_b       10.3237
_cell_length_c       6.01484
_cell_angle_alpha    90
_cell_angle_beta     90
_cell_angle_gamma    120

_symmetry_Int_Tables_number  173
_chemical_formula_structural  Y3CuSiSe7
_chemical_formula_sum  Y6Cu2Si2Se4
_cell_volume  555.1695299253788
_cell_formula_units_Z  2
loop_
  _symmetry_equiv_pos_site_id
 _symmetry_equiv_pos_as_xyz
 1  'x, y, z'
loop_
 _atom_site_type_symbol
 _atom_site_label
 _atom_site_symmetry_multiplicity
 _atom_site_fract_x
 _atom_site_fract_y
 _atom_site_fract_z
 _atom_site_fract_occupancy
 Cu  Cu1  1  0.00000  0.00000  0.96959  1
 Cu  Cu2  1  0.00000  0.00000  0.46959  1
 Se  Se1  1  0.89937  0.16233  0.95294  1
 Se  Se2  1  0.83767  0.73704  0.95294  1
 Se  Se3  1  0.09880  0.52125  0.17879  1
 Se  Se4  1  0.26296  0.10063  0.95294  1
 Se  Se5  1  0.16233  0.26296  0.45294  1
 Se  Se6  1  0.47875  0.57755  0.17879  1
 Se  Se7  1  0.42245  0.90120  0.17879  1
 Se  Se8  1  0.57755  0.09880  0.67879  1
 Se  Se9  1  0.33333  0.66667  0.71312  1
 Se  Se10  1  0.90120  0.47875  0.67879  1
 Se  Se11  1  0.52125  0.42245  0.67879  1
 Se  Se12  1  0.73704  0.89937  0.45294  1
 Se  Se13  1  0.10063  0.83767  0.45294  1
 Se  Se14  1  0.66667  0.33333  0.21312  1
 Si  Si1  1  0.33333  0.66667  0.33465  1
 Si  Si2  1  0.66667  0.33333  0.83465  1
 Y  Y1  1  0.35623  0.13371  0.42312  1
 Y  Y2  1  0.13371  0.77748  0.92312  1
 Y  Y3  1  0.77748  0.64377  0.42312  1
 Y  Y4  1  0.86629  0.22252  0.42312  1
 Y  Y5  1  0.64377  0.86629  0.92312  1
 Y  Y6  1  0.22252  0.35623  0.92312  1
