CIF file written using JARVIS-Tools package.
data_Ca3ScCoO6
_symmetry_space_group_name_H-M  'R-3c'
_cell_length_a       6.35382
_cell_length_b       6.35382
_cell_length_c       6.35382
_cell_angle_alpha    92.3412
_cell_angle_beta     92.3412
_cell_angle_gamma    92.3412

_symmetry_Int_Tables_number  167
_chemical_formula_structural  Ca3ScCoO6
_chemical_formula_sum  Ca6Sc2Co2O2
_cell_volume  255.85008636196858
_cell_formula_units_Z  2
loop_
  _symmetry_equiv_pos_site_id
 _symmetry_equiv_pos_as_xyz
 1  'x, y, z'
loop_
 _atom_site_type_symbol
 _atom_site_label
 _atom_site_symmetry_multiplicity
 _atom_site_fract_x
 _atom_site_fract_y
 _atom_site_fract_z
 _atom_site_fract_occupancy
 Ca  Ca1  1  0.38022  0.75000  0.11978  1
 Ca  Ca2  1  0.75000  0.11978  0.38022  1
 Ca  Ca3  1  0.11978  0.38022  0.75000  1
 Ca  Ca4  1  0.88022  0.61978  0.25000  1
 Ca  Ca5  1  0.25000  0.88022  0.61978  1
 Ca  Ca6  1  0.61978  0.25000  0.88022  1
 Co  Co1  1  0.50000  0.50000  0.50000  1
 Co  Co2  1  0.00000  0.00000  0.00000  1
 O  O1  1  0.29152  0.08785  0.95683  1
 O  O2  1  0.91215  0.04317  0.70848  1
 O  O3  1  0.70848  0.91215  0.04317  1
 O  O4  1  0.95683  0.29152  0.08785  1
 O  O5  1  0.08785  0.95683  0.29152  1
 O  O6  1  0.04317  0.70848  0.91215  1
 O  O7  1  0.79152  0.45683  0.58785  1
 O  O8  1  0.41215  0.20848  0.54317  1
 O  O9  1  0.54317  0.41215  0.20848  1
 O  O10  1  0.20848  0.54317  0.41215  1
 O  O11  1  0.45683  0.58785  0.79152  1
 O  O12  1  0.58785  0.79152  0.45683  1
 Sc  Sc1  1  0.75000  0.75000  0.75000  1
 Sc  Sc2  1  0.25000  0.25000  0.25000  1
