CIF file written using JARVIS-Tools package.
data_Ba2I
_symmetry_space_group_name_H-M  'Cmmm'
_cell_length_a       6.87163
_cell_length_b       4.22121
_cell_length_c       8.43271
_cell_angle_alpha    90
_cell_angle_beta     52.2222
_cell_angle_gamma    90

_symmetry_Int_Tables_number  65
_chemical_formula_structural  Ba2I
_chemical_formula_sum  Ba2I
_cell_volume  193.33352864792732
_cell_formula_units_Z  1
loop_
  _symmetry_equiv_pos_site_id
 _symmetry_equiv_pos_as_xyz
 1  'x, y, z'
loop_
 _atom_site_type_symbol
 _atom_site_label
 _atom_site_symmetry_multiplicity
 _atom_site_fract_x
 _atom_site_fract_y
 _atom_site_fract_z
 _atom_site_fract_occupancy
 Ba  Ba1  1  -0.03354  0.00000  -0.03315  1
 Ba  Ba2  1  -0.03313  0.00000  0.46662  1
 I  I1  1  0.46666  0.00000  -0.03347  1
