CIF file written using JARVIS-Tools package.
data_Tb2Pr
_symmetry_space_group_name_H-M  'R3m'
_cell_length_a       8.93896
_cell_length_b       8.93897
_cell_length_c       8.93897
_cell_angle_alpha    23.2275
_cell_angle_beta     23.2275
_cell_angle_gamma    23.2275

_symmetry_Int_Tables_number  160
_chemical_formula_structural  Tb2Pr
_chemical_formula_sum  Tb2Pr
_cell_volume  97.52880643953598
_cell_formula_units_Z  1
loop_
  _symmetry_equiv_pos_site_id
 _symmetry_equiv_pos_as_xyz
 1  'x, y, z'
loop_
 _atom_site_type_symbol
 _atom_site_label
 _atom_site_symmetry_multiplicity
 _atom_site_fract_x
 _atom_site_fract_y
 _atom_site_fract_z
 _atom_site_fract_occupancy
 Pr  Pr1  1  0.77792  0.77792  0.77792  1
 Tb  Tb1  1  0.22416  0.22416  0.22416  1
 Tb  Tb2  1  0.99792  0.99792  0.99792  1
