CIF file written using JARVIS-Tools package.
data_Ti3NbAl2C2
_symmetry_space_group_name_H-M  'P3m1'
_cell_length_a       3.07792
_cell_length_b       3.07792
_cell_length_c       13.7922
_cell_angle_alpha    90
_cell_angle_beta     90
_cell_angle_gamma    120

_symmetry_Int_Tables_number  156
_chemical_formula_structural  Ti3NbAl2C2
_chemical_formula_sum  Ti3NbAl2C2
_cell_volume  113.15665090121712
_cell_formula_units_Z  1
loop_
  _symmetry_equiv_pos_site_id
 _symmetry_equiv_pos_as_xyz
 1  'x, y, z'
loop_
 _atom_site_type_symbol
 _atom_site_label
 _atom_site_symmetry_multiplicity
 _atom_site_fract_x
 _atom_site_fract_y
 _atom_site_fract_z
 _atom_site_fract_occupancy
 Al  Al1  1  0.66667  0.33333  0.75199  1
 Al  Al2  1  0.33333  0.66667  0.24604  1
 C  C1  1  0.00000  0.00000  0.50586  1
 C  C2  1  0.00000  0.00000  0.99913  1
 Nb  Nb1  1  0.66667  0.33333  0.41089  1
 Ti  Ti1  1  0.33333  0.66667  0.58731  1
 Ti  Ti2  1  0.33333  0.66667  0.91596  1
 Ti  Ti3  1  0.66667  0.33333  0.08283  1
