CIF file written using JARVIS-Tools package.
data_Nd2Tm
_symmetry_space_group_name_H-M  'R-3m'
_cell_length_a       9.02215
_cell_length_b       9.02215
_cell_length_c       9.02215
_cell_angle_alpha    22.9645
_cell_angle_beta     22.9645
_cell_angle_gamma    22.9645

_symmetry_Int_Tables_number  166
_chemical_formula_structural  Nd2Tm
_chemical_formula_sum  Nd2Tm
_cell_volume  98.1118190003734
_cell_formula_units_Z  1
loop_
  _symmetry_equiv_pos_site_id
 _symmetry_equiv_pos_as_xyz
 1  'x, y, z'
loop_
 _atom_site_type_symbol
 _atom_site_label
 _atom_site_symmetry_multiplicity
 _atom_site_fract_x
 _atom_site_fract_y
 _atom_site_fract_z
 _atom_site_fract_occupancy
 Nd  Nd1  1  0.77509  0.77509  0.77509  1
 Nd  Nd2  1  0.22491  0.22491  0.22491  1
 Tm  Tm1  1  0.00000  0.00000  0.00000  1
