CIF file written using JARVIS-Tools package.
data_Co6O5F7
_symmetry_space_group_name_H-M  'P1'
_cell_length_a       6.92932
_cell_length_b       5.37003
_cell_length_c       5.38317
_cell_angle_alpha    72.9628
_cell_angle_beta     73.1253
_cell_angle_gamma    73.5734

_symmetry_Int_Tables_number  1
_chemical_formula_structural  Co6O5F7
_chemical_formula_sum  Co6O5F7
_cell_volume  178.94254805845412
_cell_formula_units_Z  1
loop_
  _symmetry_equiv_pos_site_id
 _symmetry_equiv_pos_as_xyz
 1  'x, y, z'
loop_
 _atom_site_type_symbol
 _atom_site_label
 _atom_site_symmetry_multiplicity
 _atom_site_fract_x
 _atom_site_fract_y
 _atom_site_fract_z
 _atom_site_fract_occupancy
 Co  Co1  1  0.84095  0.67300  0.70170  1
 Co  Co2  1  0.32019  0.67378  0.62668  1
 Co  Co3  1  0.66461  0.36180  0.31643  1
 Co  Co4  1  0.17148  0.30825  0.33349  1
 Co  Co5  1  0.49823  0.98119  0.01263  1
 Co  Co6  1  0.00129  0.99055  0.01497  1
 F  F1  1  0.69143  0.09560  0.10672  1
 F  F2  1  0.30938  0.88736  0.88994  1
 F  F3  1  0.63501  0.58639  0.57582  1
 F  F4  1  0.66004  0.05652  0.63836  1
 F  F5  1  0.33900  0.36081  0.94137  1
 F  F6  1  0.99979  0.68542  0.32116  1
 F  F7  1  -0.00038  0.29037  0.71064  1
 O  O1  1  0.37034  0.43638  0.41652  1
 O  O2  1  0.33106  0.96329  0.34822  1
 O  O3  1  0.66832  0.64956  0.03558  1
 O  O4  1  0.96090  0.22872  0.23118  1
 O  O5  1  0.03834  0.77099  0.77860  1
