CIF file written using JARVIS-Tools package.
data_LiNi2O4
_symmetry_space_group_name_H-M  'Imma'
_cell_length_a       5.71503
_cell_length_b       5.71503
_cell_length_c       5.71503
_cell_angle_alpha    120.473
_cell_angle_beta     120.365
_cell_angle_gamma    89.2755

_symmetry_Int_Tables_number  74
_chemical_formula_structural  LiNi2O4
_chemical_formula_sum  Li2Ni4O8
_cell_volume  131.14210828985614
_cell_formula_units_Z  2
loop_
  _symmetry_equiv_pos_site_id
 _symmetry_equiv_pos_as_xyz
 1  'x, y, z'
loop_
 _atom_site_type_symbol
 _atom_site_label
 _atom_site_symmetry_multiplicity
 _atom_site_fract_x
 _atom_site_fract_y
 _atom_site_fract_z
 _atom_site_fract_occupancy
 Li  Li1  1  0.50000  0.50000  0.00000  1
 Li  Li2  1  -0.00000  0.50000  0.50000  1
 Ni  Ni1  1  -0.00000  0.50000  0.00000  1
 Ni  Ni2  1  0.00000  -0.00000  0.50000  1
 Ni  Ni3  1  0.50000  -0.00000  0.50000  1
 Ni  Ni4  1  0.00000  0.00000  0.00000  1
 O  O1  1  0.23075  0.21107  0.48032  1
 O  O2  1  0.23075  0.75042  0.01968  1
 O  O3  1  0.77714  0.24626  0.53088  1
 O  O4  1  0.21538  0.24626  0.96912  1
 O  O5  1  0.78462  0.75374  0.03088  1
 O  O6  1  0.22286  0.75374  0.46912  1
 O  O7  1  0.76925  0.24958  0.98032  1
 O  O8  1  0.76925  0.78893  0.51968  1
