CIF file written using JARVIS-Tools package.
data_NaBi3Cl2O4
_symmetry_space_group_name_H-M  'Amm2'
_cell_length_a       6.6813
_cell_length_b       6.6813
_cell_length_c       5.54329
_cell_angle_alpha    90
_cell_angle_beta     90
_cell_angle_gamma    130.891

_symmetry_Int_Tables_number  38
_chemical_formula_structural  NaBi3Cl2O4
_chemical_formula_sum  NaBi3Cl2O4
_cell_volume  187.06121397456909
_cell_formula_units_Z  1
loop_
  _symmetry_equiv_pos_site_id
 _symmetry_equiv_pos_as_xyz
 1  'x, y, z'
loop_
 _atom_site_type_symbol
 _atom_site_label
 _atom_site_symmetry_multiplicity
 _atom_site_fract_x
 _atom_site_fract_y
 _atom_site_fract_z
 _atom_site_fract_occupancy
 Bi  Bi1  1  0.84501  0.15499  0.00000  1
 Bi  Bi2  1  0.15710  0.84290  0.00000  1
 Bi  Bi3  1  0.65578  0.34422  0.50000  1
 Cl  Cl1  1  0.49423  0.50577  0.00000  1
 Cl  Cl2  1  0.00330  0.99670  0.50000  1
 Na  Na1  1  0.35046  0.64954  0.50000  1
 O  O1  1  0.50521  0.00815  0.75567  1
 O  O2  1  0.99185  0.49479  0.24433  1
 O  O3  1  0.99185  0.49479  0.75567  1
 O  O4  1  0.50521  0.00815  0.24433  1
