CIF file written using JARVIS-Tools package.
data_Li2NiP2O7
_symmetry_space_group_name_H-M  'C2/c'
_cell_length_a       7.65253
_cell_length_b       7.65252
_cell_length_c       7.58371
_cell_angle_alpha    65.0306
_cell_angle_beta     65.0307
_cell_angle_gamma    41.9075

_symmetry_Int_Tables_number  15
_chemical_formula_structural  Li2NiP2O7
_chemical_formula_sum  Li4Ni2P4O4
_cell_volume  264.60003723569315
_cell_formula_units_Z  2
loop_
  _symmetry_equiv_pos_site_id
 _symmetry_equiv_pos_as_xyz
 1  'x, y, z'
loop_
 _atom_site_type_symbol
 _atom_site_label
 _atom_site_symmetry_multiplicity
 _atom_site_fract_x
 _atom_site_fract_y
 _atom_site_fract_z
 _atom_site_fract_occupancy
 Li  Li1  1  0.93813  0.64644  0.80704  1
 Li  Li2  1  0.35356  0.06187  0.69296  1
 Li  Li3  1  0.64644  0.93813  0.30704  1
 Li  Li4  1  0.06187  0.35356  0.19296  1
 Ni  Ni1  1  0.00000  0.00000  0.50000  1
 Ni  Ni2  1  0.00000  0.00000  0.00000  1
 O  O1  1  0.71579  0.05968  0.70437  1
 O  O2  1  0.49427  0.50573  0.75000  1
 O  O3  1  0.12230  0.66786  0.53409  1
 O  O4  1  0.05968  0.71579  0.20437  1
 O  O5  1  0.33812  0.26520  0.42433  1
 O  O6  1  0.26520  0.33812  0.92433  1
 O  O7  1  0.33214  0.87770  0.96591  1
 O  O8  1  0.66188  0.73480  0.57567  1
 O  O9  1  0.73480  0.66188  0.07567  1
 O  O10  1  0.87770  0.33214  0.46591  1
 O  O11  1  0.66786  0.12230  0.03409  1
 O  O12  1  0.28421  0.94032  0.29563  1
 O  O13  1  0.94032  0.28421  0.79563  1
 O  O14  1  0.50573  0.49427  0.25000  1
 P  P1  1  0.46622  0.75300  0.14264  1
 P  P2  1  0.75300  0.46622  0.64264  1
 P  P3  1  0.24700  0.53378  0.35736  1
 P  P4  1  0.53378  0.24700  0.85736  1
