CIF file written using JARVIS-Tools package.
data_NaBi3Br2O4
_symmetry_space_group_name_H-M  'Amm2'
_cell_length_a       6.90456
_cell_length_b       6.90457
_cell_length_c       5.60428
_cell_angle_alpha    90
_cell_angle_beta     90
_cell_angle_gamma    132.037

_symmetry_Int_Tables_number  38
_chemical_formula_structural  NaBi3Br2O4
_chemical_formula_sum  NaBi3Br2O4
_cell_volume  198.43246612220725
_cell_formula_units_Z  1
loop_
  _symmetry_equiv_pos_site_id
 _symmetry_equiv_pos_as_xyz
 1  'x, y, z'
loop_
 _atom_site_type_symbol
 _atom_site_label
 _atom_site_symmetry_multiplicity
 _atom_site_fract_x
 _atom_site_fract_y
 _atom_site_fract_z
 _atom_site_fract_occupancy
 Bi  Bi1  1  0.84074  0.15926  0.00000  1
 Bi  Bi2  1  0.16162  0.83838  0.00000  1
 Bi  Bi3  1  0.66056  0.33944  0.50000  1
 Br  Br1  1  0.49460  0.50540  0.00000  1
 Br  Br2  1  0.00300  0.99700  0.50000  1
 Na  Na1  1  0.34488  0.65512  0.50000  1
 O  O1  1  0.50578  0.00848  0.75640  1
 O  O2  1  0.99152  0.49422  0.24360  1
 O  O3  1  0.99152  0.49422  0.75640  1
 O  O4  1  0.50578  0.00848  0.24360  1
