CIF file written using JARVIS-Tools package.
data_BaTe
_symmetry_space_group_name_H-M  'P2_1/m'
_cell_length_a       6.01487
_cell_length_b       7.0048
_cell_length_c       9.17168
_cell_angle_alpha    139.793
_cell_angle_beta     70.7181
_cell_angle_gamma    89.9977

_symmetry_Int_Tables_number  11
_chemical_formula_structural  BaTe
_chemical_formula_sum  Ba2Te2
_cell_volume  214.34492366385376
_cell_formula_units_Z  2
loop_
  _symmetry_equiv_pos_site_id
 _symmetry_equiv_pos_as_xyz
 1  'x, y, z'
loop_
 _atom_site_type_symbol
 _atom_site_label
 _atom_site_symmetry_multiplicity
 _atom_site_fract_x
 _atom_site_fract_y
 _atom_site_fract_z
 _atom_site_fract_occupancy
 Ba  Ba1  1  0.12969  0.05127  -0.01853  1
 Ba  Ba2  1  0.79385  0.22477  0.65500  1
 Te  Te1  1  0.79360  0.72567  0.65588  1
 Te  Te2  1  0.12993  0.55039  0.98058  1
