CIF file written using JARVIS-Tools package.
data_CoPO4
_symmetry_space_group_name_H-M  'Pc'
_cell_length_a       4.8781
_cell_length_b       7.70927
_cell_length_c       8.13222
_cell_angle_alpha    72.2013
_cell_angle_beta     90
_cell_angle_gamma    90

_symmetry_Int_Tables_number  7
_chemical_formula_structural  CoPO4
_chemical_formula_sum  Co4P4O6
_cell_volume  291.1865714987547
_cell_formula_units_Z  4
loop_
  _symmetry_equiv_pos_site_id
 _symmetry_equiv_pos_as_xyz
 1  'x, y, z'
loop_
 _atom_site_type_symbol
 _atom_site_label
 _atom_site_symmetry_multiplicity
 _atom_site_fract_x
 _atom_site_fract_y
 _atom_site_fract_z
 _atom_site_fract_occupancy
 Co  Co1  1  0.07059  0.00645  0.16279  1
 Co  Co2  1  0.18075  0.53993  0.25244  1
 Co  Co3  1  -0.07059  0.00645  0.66279  1
 Co  Co4  1  0.81925  0.53993  0.75244  1
 O  O1  1  0.31321  0.10803  -0.01335  1
 O  O2  1  0.40022  0.71878  0.09365  1
 O  O3  1  0.80197  0.17160  0.17298  1
 O  O4  1  0.78720  0.58686  0.96835  1
 O  O5  1  -0.14574  0.41730  0.32237  1
 O  O6  1  0.38660  0.32319  0.25507  1
 O  O7  1  0.88868  0.78555  0.15894  1
 O  O8  1  0.21280  0.58686  0.46835  1
 O  O9  1  0.29628  0.92734  0.35881  1
 O  O10  1  0.19803  0.17160  0.67298  1
 O  O11  1  0.68679  0.10803  0.48665  1
 O  O12  1  0.11132  0.78555  0.65894  1
 O  O13  1  0.14574  0.41730  0.82237  1
 O  O14  1  0.61340  0.32319  0.75507  1
 O  O15  1  0.59978  0.71878  0.59365  1
 O  O16  1  0.70372  0.92734  0.85881  1
 P  P1  1  0.32025  0.25604  0.80777  1
 P  P2  1  0.30946  0.75500  0.51748  1
 P  P3  1  0.67975  0.25604  0.30777  1
 P  P4  1  0.69054  0.75500  0.01748  1
