CIF file written using JARVIS-Tools package.
data_Ba2Te
_symmetry_space_group_name_H-M  'P2/m'
_cell_length_a       4.64367
_cell_length_b       4.42901
_cell_length_c       11.0132
_cell_angle_alpha    90
_cell_angle_beta     51.3615
_cell_angle_gamma    90

_symmetry_Int_Tables_number  10
_chemical_formula_structural  Ba2Te
_chemical_formula_sum  Ba2Te
_cell_volume  176.9243324416539
_cell_formula_units_Z  1
loop_
  _symmetry_equiv_pos_site_id
 _symmetry_equiv_pos_as_xyz
 1  'x, y, z'
loop_
 _atom_site_type_symbol
 _atom_site_label
 _atom_site_symmetry_multiplicity
 _atom_site_fract_x
 _atom_site_fract_y
 _atom_site_fract_z
 _atom_site_fract_occupancy
 Ba  Ba1  1  0.04509  0.00000  -0.14370  1
 Ba  Ba2  1  0.22157  0.00000  0.41037  1
 Te  Te1  1  0.13333  0.00000  0.13333  1
