CIF file written using JARVIS-Tools package.
data_LiAlNiO3
_symmetry_space_group_name_H-M  'P-1'
_cell_length_a       5.58241
_cell_length_b       5.87421
_cell_length_c       8.75837
_cell_angle_alpha    109.031
_cell_angle_beta     106.8
_cell_angle_gamma    63.3298

_symmetry_Int_Tables_number  2
_chemical_formula_structural  LiAlNiO3
_chemical_formula_sum  Li4Al4Ni4O2
_cell_volume  239.1360640908297
_cell_formula_units_Z  4
loop_
  _symmetry_equiv_pos_site_id
 _symmetry_equiv_pos_as_xyz
 1  'x, y, z'
loop_
 _atom_site_type_symbol
 _atom_site_label
 _atom_site_symmetry_multiplicity
 _atom_site_fract_x
 _atom_site_fract_y
 _atom_site_fract_z
 _atom_site_fract_occupancy
 Al  Al1  1  0.62719  0.78645  0.37609  1
 Al  Al2  1  0.12719  0.28645  0.87609  1
 Al  Al3  1  0.87281  0.71355  0.12391  1
 Al  Al4  1  0.37281  0.21355  0.62391  1
 Li  Li1  1  0.94155  0.13251  0.37685  1
 Li  Li2  1  0.44155  0.63251  0.87686  1
 Li  Li3  1  0.55845  0.36749  0.12314  1
 Li  Li4  1  0.05845  0.86749  0.62314  1
 Ni  Ni1  1  0.78150  0.96397  0.87030  1
 Ni  Ni2  1  0.71850  0.53603  0.62970  1
 Ni  Ni3  1  0.28150  0.46397  0.37030  1
 Ni  Ni4  1  0.21850  0.03603  0.12970  1
 O  O1  1  0.13916  0.97881  0.88410  1
 O  O2  1  0.86084  0.02119  0.11590  1
 O  O3  1  0.94250  0.78964  0.35934  1
 O  O4  1  0.44250  0.28964  0.85934  1
 O  O5  1  0.55750  0.71036  0.14066  1
 O  O6  1  0.05750  0.21036  0.64066  1
 O  O7  1  0.32764  0.09575  0.38518  1
 O  O8  1  0.82764  0.59575  0.88518  1
 O  O9  1  0.17236  0.40425  0.11482  1
 O  O10  1  0.67236  0.90425  0.61482  1
 O  O11  1  0.63916  0.47881  0.38410  1
 O  O12  1  0.36084  0.52119  0.61590  1
