CIF file written using JARVIS-Tools package.
data_Na5BrCl4
_symmetry_space_group_name_H-M  'R-3m'
_cell_length_a       16.5458
_cell_length_b       16.5458
_cell_length_c       16.5458
_cell_angle_alpha    13.9296
_cell_angle_beta     13.9296
_cell_angle_gamma    13.9296

_symmetry_Int_Tables_number  166
_chemical_formula_structural  Na5BrCl4
_chemical_formula_sum  Na5BrCl4
_cell_volume  228.45079829166156
_cell_formula_units_Z  1
loop_
  _symmetry_equiv_pos_site_id
 _symmetry_equiv_pos_as_xyz
 1  'x, y, z'
loop_
 _atom_site_type_symbol
 _atom_site_label
 _atom_site_symmetry_multiplicity
 _atom_site_fract_x
 _atom_site_fract_y
 _atom_site_fract_z
 _atom_site_fract_occupancy
 Br  Br1  1  0.50000  0.50000  0.50000  1
 Cl  Cl1  1  0.09779  0.09779  0.09779  1
 Cl  Cl2  1  0.69926  0.69926  0.69926  1
 Cl  Cl3  1  0.30074  0.30074  0.30074  1
 Cl  Cl4  1  0.90221  0.90221  0.90221  1
 Na  Na1  1  0.60149  0.60149  0.60149  1
 Na  Na2  1  0.00000  0.00000  0.00000  1
 Na  Na3  1  0.39851  0.39851  0.39851  1
 Na  Na4  1  0.20293  0.20293  0.20293  1
 Na  Na5  1  0.79707  0.79707  0.79707  1
