CIF file written using JARVIS-Tools package.
data_MnFeB
_symmetry_space_group_name_H-M  'Fmmm'
_cell_length_a       5.02814
_cell_length_b       4.14537
_cell_length_c       4.09978
_cell_angle_alpha    75.1519
_cell_angle_beta     52.8356
_cell_angle_gamma    52.0159

_symmetry_Int_Tables_number  69
_chemical_formula_structural  MnFeB
_chemical_formula_sum  Mn2Fe2B2
_cell_volume  52.7582703260353
_cell_formula_units_Z  2
loop_
  _symmetry_equiv_pos_site_id
 _symmetry_equiv_pos_as_xyz
 1  'x, y, z'
loop_
 _atom_site_type_symbol
 _atom_site_label
 _atom_site_symmetry_multiplicity
 _atom_site_fract_x
 _atom_site_fract_y
 _atom_site_fract_z
 _atom_site_fract_occupancy
 B  B1  1  0.24997  0.24997  0.25000  1
 B  B2  1  0.75001  0.75001  0.74998  1
 Fe  Fe1  1  0.66534  0.66534  0.33465  1
 Fe  Fe2  1  0.33464  0.33464  0.66533  1
 Mn  Mn1  1  0.83857  0.16141  0.83862  1
 Mn  Mn2  1  0.16141  0.83857  0.16136  1
