CIF file written using JARVIS-Tools package.
data_BaTe2
_symmetry_space_group_name_H-M  'C2/m'
_cell_length_a       4.68926
_cell_length_b       6.96459
_cell_length_c       4.68917
_cell_angle_alpha    63.0319
_cell_angle_beta     91.2796
_cell_angle_gamma    116.972

_symmetry_Int_Tables_number  12
_chemical_formula_structural  BaTe2
_chemical_formula_sum  BaTe2
_cell_volume  118.3587838609044
_cell_formula_units_Z  1
loop_
  _symmetry_equiv_pos_site_id
 _symmetry_equiv_pos_as_xyz
 1  'x, y, z'
loop_
 _atom_site_type_symbol
 _atom_site_label
 _atom_site_symmetry_multiplicity
 _atom_site_fract_x
 _atom_site_fract_y
 _atom_site_fract_z
 _atom_site_fract_occupancy
 Ba  Ba1  1  0.14480  0.00775  0.09566  1
 Te  Te1  1  0.85232  0.28667  0.38814  1
 Te  Te2  1  0.43734  0.72882  0.80321  1
