CIF file written using JARVIS-Tools package.
data_BaTe2
_symmetry_space_group_name_H-M  'Cmmm'
_cell_length_a       6.29745
_cell_length_b       4.96923
_cell_length_c       5.75565
_cell_angle_alpha    90
_cell_angle_beta     117.14
_cell_angle_gamma    90

_symmetry_Int_Tables_number  65
_chemical_formula_structural  BaTe2
_chemical_formula_sum  BaTe2
_cell_volume  160.28282454090325
_cell_formula_units_Z  1
loop_
  _symmetry_equiv_pos_site_id
 _symmetry_equiv_pos_as_xyz
 1  'x, y, z'
loop_
 _atom_site_type_symbol
 _atom_site_label
 _atom_site_symmetry_multiplicity
 _atom_site_fract_x
 _atom_site_fract_y
 _atom_site_fract_z
 _atom_site_fract_occupancy
 Ba  Ba1  1  0.46668  0.00000  0.13322  1
 Te  Te1  1  -0.12753  0.00000  -0.16362  1
 Te  Te2  1  0.06085  0.00000  0.43040  1
