CIF file written using JARVIS-Tools package.
data_Li2CrO2
_symmetry_space_group_name_H-M  'C2/m'
_cell_length_a       5.47129
_cell_length_b       6.51143
_cell_length_c       5.68486
_cell_angle_alpha    90.0001
_cell_angle_beta     90
_cell_angle_gamma    75.2656

_symmetry_Int_Tables_number  12
_chemical_formula_structural  Li2CrO2
_chemical_formula_sum  Li8Cr4O8
_cell_volume  195.8686100161635
_cell_formula_units_Z  4
loop_
  _symmetry_equiv_pos_site_id
 _symmetry_equiv_pos_as_xyz
 1  'x, y, z'
loop_
 _atom_site_type_symbol
 _atom_site_label
 _atom_site_symmetry_multiplicity
 _atom_site_fract_x
 _atom_site_fract_y
 _atom_site_fract_z
 _atom_site_fract_occupancy
 Cr  Cr1  1  0.00000  0.50000  0.75003  1
 Cr  Cr2  1  0.00000  0.50000  0.25003  1
 Cr  Cr3  1  0.00000  -0.00000  0.49997  1
 Cr  Cr4  1  0.00000  -0.00000  -0.00003  1
 Li  Li1  1  0.36527  0.17347  0.25000  1
 Li  Li2  1  0.36527  0.67347  -0.00000  1
 Li  Li3  1  0.63473  0.32653  0.50000  1
 Li  Li4  1  0.36527  0.67347  0.50000  1
 Li  Li5  1  0.63473  0.82653  0.25000  1
 Li  Li6  1  0.63473  0.32653  -0.00000  1
 Li  Li7  1  0.63473  0.82653  0.75000  1
 Li  Li8  1  0.36527  0.17347  0.75000  1
 O  O1  1  0.73649  0.59955  0.00002  1
 O  O2  1  0.26351  0.40045  0.50002  1
 O  O3  1  0.26351  0.90045  0.74998  1
 O  O4  1  0.26351  0.40045  0.00002  1
 O  O5  1  0.26351  0.90045  0.24998  1
 O  O6  1  0.73649  0.59955  0.50002  1
 O  O7  1  0.73649  0.09955  0.74998  1
 O  O8  1  0.73649  0.09955  0.24998  1
