CIF file written using JARVIS-Tools package.
data_Li2Ni3SnO8
_symmetry_space_group_name_H-M  'P6_3mc'
_cell_length_a       5.80665
_cell_length_b       5.80666
_cell_length_c       9.47651
_cell_angle_alpha    90
_cell_angle_beta     90
_cell_angle_gamma    120

_symmetry_Int_Tables_number  186
_chemical_formula_structural  Li2Ni3SnO8
_chemical_formula_sum  Li4Ni6Sn2O6
_cell_volume  276.71390057279075
_cell_formula_units_Z  2
loop_
  _symmetry_equiv_pos_site_id
 _symmetry_equiv_pos_as_xyz
 1  'x, y, z'
loop_
 _atom_site_type_symbol
 _atom_site_label
 _atom_site_symmetry_multiplicity
 _atom_site_fract_x
 _atom_site_fract_y
 _atom_site_fract_z
 _atom_site_fract_occupancy
 Li  Li1  1  0.33333  0.66667  0.89303  1
 Li  Li2  1  0.00000  0.00000  0.99513  1
 Li  Li3  1  0.00000  0.00000  0.49513  1
 Li  Li4  1  0.66667  0.33333  0.39303  1
 Ni  Ni1  1  0.66062  0.83031  0.21500  1
 Ni  Ni2  1  0.16969  0.33938  0.21500  1
 Ni  Ni3  1  0.16969  0.83031  0.21500  1
 Ni  Ni4  1  0.33938  0.16969  0.71500  1
 Ni  Ni5  1  0.83031  0.66062  0.71500  1
 Ni  Ni6  1  0.83031  0.16969  0.71500  1
 O  O1  1  0.03117  0.51558  0.33331  1
 O  O2  1  0.15634  0.84366  0.60242  1
 O  O3  1  0.96883  0.48442  0.83331  1
 O  O4  1  0.33333  0.66667  0.11116  1
 O  O5  1  0.00000  0.00000  0.30626  1
 O  O6  1  0.00000  0.00000  0.80626  1
 O  O7  1  0.15634  0.31269  0.60242  1
 O  O8  1  0.48442  0.51558  0.33331  1
 O  O9  1  0.84366  0.68731  0.10242  1
 O  O10  1  0.51558  0.48442  0.83331  1
 O  O11  1  0.51558  0.03117  0.83331  1
 O  O12  1  0.66667  0.33333  0.61116  1
 O  O13  1  0.48442  0.96883  0.33331  1
 O  O14  1  0.31269  0.15634  0.10242  1
 O  O15  1  0.68731  0.84366  0.60242  1
 O  O16  1  0.84366  0.15634  0.10242  1
 Sn  Sn1  1  0.66667  0.33333  0.99343  1
 Sn  Sn2  1  0.33333  0.66667  0.49343  1
