CIF file written using JARVIS-Tools package.
data_LaPrCo4P4
_symmetry_space_group_name_H-M  'P4/mmm'
_cell_length_a       3.78751
_cell_length_b       3.78751
_cell_length_c       11.0839
_cell_angle_alpha    90
_cell_angle_beta     90
_cell_angle_gamma    90

_symmetry_Int_Tables_number  123
_chemical_formula_structural  LaPrCo4P4
_chemical_formula_sum  LaPrCo4P4
_cell_volume  159.00047534575978
_cell_formula_units_Z  1
loop_
  _symmetry_equiv_pos_site_id
 _symmetry_equiv_pos_as_xyz
 1  'x, y, z'
loop_
 _atom_site_type_symbol
 _atom_site_label
 _atom_site_symmetry_multiplicity
 _atom_site_fract_x
 _atom_site_fract_y
 _atom_site_fract_z
 _atom_site_fract_occupancy
 Co  Co1  1  0.50000  0.00000  0.24682  1
 Co  Co2  1  0.00000  0.50000  0.75318  1
 Co  Co3  1  0.00000  0.50000  0.24682  1
 Co  Co4  1  0.50000  0.00000  0.75318  1
 La  La1  1  0.50000  0.50000  0.50000  1
 P  P1  1  0.50000  0.50000  0.14183  1
 P  P2  1  0.00000  0.00000  0.64857  1
 P  P3  1  0.00000  0.00000  0.35143  1
 P  P4  1  0.50000  0.50000  0.85817  1
 Pr  Pr1  1  0.00000  0.00000  0.00000  1
