CIF file written using JARVIS-Tools package.
data_LaUTe6
_symmetry_space_group_name_H-M  'Amm2'
_cell_length_a       13.0868
_cell_length_b       13.0867
_cell_length_c       4.45627
_cell_angle_alpha    90
_cell_angle_beta     90
_cell_angle_gamma    160.527

_symmetry_Int_Tables_number  38
_chemical_formula_structural  LaUTe6
_chemical_formula_sum  LaUTe6
_cell_volume  254.41932438089717
_cell_formula_units_Z  1
loop_
  _symmetry_equiv_pos_site_id
 _symmetry_equiv_pos_as_xyz
 1  'x, y, z'
loop_
 _atom_site_type_symbol
 _atom_site_label
 _atom_site_symmetry_multiplicity
 _atom_site_fract_x
 _atom_site_fract_y
 _atom_site_fract_z
 _atom_site_fract_occupancy
 La  La1  1  0.83119  0.16881  0.00000  1
 Te  Te1  1  0.57476  0.42524  0.50000  1
 Te  Te2  1  0.43017  0.56983  0.00000  1
 Te  Te3  1  0.29166  0.70834  0.50000  1
 Te  Te4  1  0.70070  0.29930  0.00000  1
 Te  Te5  1  0.93043  0.06957  0.50000  1
 Te  Te6  1  0.07485  0.92515  0.00000  1
 U  U1  1  0.16623  0.83377  0.50000  1
