CIF file written using JARVIS-Tools package.
data_Li2Co3NiO8
_symmetry_space_group_name_H-M  'C2/m'
_cell_length_a       5.61362
_cell_length_b       5.69886
_cell_length_c       5.61444
_cell_angle_alpha    118.99
_cell_angle_beta     119.441
_cell_angle_gamma    61.0188

_symmetry_Int_Tables_number  12
_chemical_formula_structural  Li2Co3NiO8
_chemical_formula_sum  Li2Co3NiO8
_cell_volume  129.47014712328027
_cell_formula_units_Z  1
loop_
  _symmetry_equiv_pos_site_id
 _symmetry_equiv_pos_as_xyz
 1  'x, y, z'
loop_
 _atom_site_type_symbol
 _atom_site_label
 _atom_site_symmetry_multiplicity
 _atom_site_fract_x
 _atom_site_fract_y
 _atom_site_fract_z
 _atom_site_fract_occupancy
 Co  Co1  1  0.50000  1.00000  0.50000  1
 Co  Co2  1  0.50000  0.00000  0.00000  1
 Co  Co3  1  -0.00000  0.00000  0.50000  1
 Li  Li1  1  0.50001  0.50000  0.99999  1
 Li  Li2  1  0.00000  0.50000  0.50000  1
 Ni  Ni1  1  0.00000  1.00000  0.00000  1
 O  O1  1  0.76511  0.21091  0.23490  1
 O  O2  1  0.23489  0.78909  0.76510  1
 O  O3  1  0.26486  0.21039  0.73513  1
 O  O4  1  0.73514  0.78961  0.26488  1
 O  O5  1  0.26494  0.20550  0.23710  1
 O  O6  1  0.76302  0.20542  0.73517  1
 O  O7  1  0.23698  0.79458  0.26483  1
 O  O8  1  0.73506  0.79450  0.76290  1
