CIF file written using JARVIS-Tools package.
data_Li2V3FeO8
_symmetry_space_group_name_H-M  'Cm'
_cell_length_a       6.1616
_cell_length_b       6.1616
_cell_length_c       6.26267
_cell_angle_alpha    74.0249
_cell_angle_beta     74.0249
_cell_angle_gamma    37.2433

_symmetry_Int_Tables_number  8
_chemical_formula_structural  Li2V3FeO8
_chemical_formula_sum  Li2V3FeO8
_cell_volume  137.69287730854103
_cell_formula_units_Z  1
loop_
  _symmetry_equiv_pos_site_id
 _symmetry_equiv_pos_as_xyz
 1  'x, y, z'
loop_
 _atom_site_type_symbol
 _atom_site_label
 _atom_site_symmetry_multiplicity
 _atom_site_fract_x
 _atom_site_fract_y
 _atom_site_fract_z
 _atom_site_fract_occupancy
 Fe  Fe1  1  0.28596  0.28596  0.30389  1
 Li  Li1  1  0.94173  0.94173  0.32151  1
 Li  Li2  1  0.05808  0.05808  0.65380  1
 O  O1  1  0.88906  0.88906  0.67602  1
 O  O2  1  0.76789  0.76789  0.35367  1
 O  O3  1  0.65574  0.65574  0.99410  1
 O  O4  1  0.55970  0.55970  0.64682  1
 O  O5  1  0.44247  0.44247  0.35432  1
 O  O6  1  0.34435  0.34435  0.00615  1
 O  O7  1  0.22672  0.22672  0.65336  1
 O  O8  1  0.11535  0.11535  0.31287  1
 V  V1  1  0.71813  0.71813  0.70463  1
 V  V2  1  0.60981  0.60981  0.29456  1
 V  V3  1  0.38502  0.38502  0.72431  1
