CIF file written using JARVIS-Tools package.
data_Li3FeCo4O8
_symmetry_space_group_name_H-M  'C2/m'
_cell_length_a       5.68794
_cell_length_b       5.75852
_cell_length_c       5.7298
_cell_angle_alpha    119.836
_cell_angle_beta     119.76
_cell_angle_gamma    89.9985

_symmetry_Int_Tables_number  12
_chemical_formula_structural  Li3FeCo4O8
_chemical_formula_sum  Li3FeCo4O8
_cell_volume  133.51322789260044
_cell_formula_units_Z  1
loop_
  _symmetry_equiv_pos_site_id
 _symmetry_equiv_pos_as_xyz
 1  'x, y, z'
loop_
 _atom_site_type_symbol
 _atom_site_label
 _atom_site_symmetry_multiplicity
 _atom_site_fract_x
 _atom_site_fract_y
 _atom_site_fract_z
 _atom_site_fract_occupancy
 Co  Co1  1  0.50000  0.50000  0.00000  1
 Co  Co2  1  0.00000  0.00000  0.00000  1
 Co  Co3  1  -0.00000  0.50000  0.50000  1
 Co  Co4  1  0.50000  0.50000  0.50000  1
 Fe  Fe1  1  0.50000  -0.00000  -0.00000  1
 Li  Li1  1  -0.00000  0.00000  0.50000  1
 Li  Li2  1  0.00000  0.50000  0.00000  1
 Li  Li3  1  0.50000  0.00000  0.50000  1
 O  O1  1  0.73984  0.25765  0.47970  1
 O  O2  1  0.72036  0.74057  -0.02527  1
 O  O3  1  0.25440  0.74058  0.97474  1
 O  O4  1  0.25635  0.27779  0.51268  1
 O  O5  1  0.74365  0.72221  0.48732  1
 O  O6  1  0.74560  0.25942  0.02526  1
 O  O7  1  0.27964  0.25943  0.02527  1
 O  O8  1  0.26016  0.74235  0.52030  1
