CIF file written using JARVIS-Tools package.
data_In3BiTe4
_symmetry_space_group_name_H-M  'I422'
_cell_length_a       6.91793
_cell_length_b       6.91793
_cell_length_c       6.91793
_cell_angle_alpha    106.753
_cell_angle_beta     106.753
_cell_angle_gamma    115.055

_symmetry_Int_Tables_number  97
_chemical_formula_structural  In3BiTe4
_chemical_formula_sum  In3BiTe4
_cell_volume  253.02979933830926
_cell_formula_units_Z  1
loop_
  _symmetry_equiv_pos_site_id
 _symmetry_equiv_pos_as_xyz
 1  'x, y, z'
loop_
 _atom_site_type_symbol
 _atom_site_label
 _atom_site_symmetry_multiplicity
 _atom_site_fract_x
 _atom_site_fract_y
 _atom_site_fract_z
 _atom_site_fract_occupancy
 Bi  Bi1  1  0.00000  0.00000  0.00000  1
 In  In1  1  0.50000  -0.00000  0.50000  1
 In  In2  1  -0.00000  0.50000  0.50000  1
 In  In3  1  0.50000  0.50000  0.00000  1
 Te  Te1  1  0.94500  0.44500  0.89001  1
 Te  Te2  1  0.55500  0.05500  0.10999  1
 Te  Te3  1  0.05500  0.94500  0.50000  1
 Te  Te4  1  0.44500  0.55500  0.50000  1
