CIF file written using JARVIS-Tools package.
data_LiVSiO4
_symmetry_space_group_name_H-M  'Pc'
_cell_length_a       5.55683
_cell_length_b       7.92119
_cell_length_c       7.83288
_cell_angle_alpha    112.483
_cell_angle_beta     89.9999
_cell_angle_gamma    90

_symmetry_Int_Tables_number  7
_chemical_formula_structural  LiVSiO4
_chemical_formula_sum  Li4V4Si4O6
_cell_volume  318.57080301033994
_cell_formula_units_Z  4
loop_
  _symmetry_equiv_pos_site_id
 _symmetry_equiv_pos_as_xyz
 1  'x, y, z'
loop_
 _atom_site_type_symbol
 _atom_site_label
 _atom_site_symmetry_multiplicity
 _atom_site_fract_x
 _atom_site_fract_y
 _atom_site_fract_z
 _atom_site_fract_occupancy
 Li  Li1  1  0.83342  0.97241  0.07631  1
 Li  Li2  1  0.16658  0.97241  0.57631  1
 Li  Li3  1  0.33870  0.52887  0.33753  1
 Li  Li4  1  0.66130  0.52887  0.83753  1
 O  O1  1  0.14930  0.91400  -0.01246  1
 O  O2  1  0.34008  0.03044  0.37967  1
 O  O3  1  0.38834  0.34208  0.08102  1
 O  O4  1  0.61166  0.34208  0.58102  1
 O  O5  1  0.68141  0.77359  0.13237  1
 O  O6  1  0.31859  0.77359  0.63237  1
 O  O7  1  0.85070  0.91400  0.48754  1
 O  O8  1  0.88779  0.66259  0.71393  1
 O  O9  1  0.77130  0.22328  0.20827  1
 O  O10  1  0.22870  0.22328  0.70827  1
 O  O11  1  0.69353  0.59733  0.37490  1
 O  O12  1  0.18189  0.37930  0.45600  1
 O  O13  1  0.11221  0.66260  0.21393  1
 O  O14  1  0.81811  0.37930  0.95600  1
 O  O15  1  0.30647  0.59733  0.87490  1
 O  O16  1  0.65992  0.03044  0.87967  1
 Si  Si1  1  0.65299  0.24425  0.02478  1
 Si  Si2  1  0.34701  0.24425  0.52478  1
 Si  Si3  1  0.83701  0.73376  0.29076  1
 Si  Si4  1  0.16299  0.73376  0.79076  1
 V  V1  1  0.15625  0.40570  0.94251  1
 V  V2  1  0.33483  0.83119  0.14822  1
 V  V3  1  0.84375  0.40570  0.44251  1
 V  V4  1  0.66517  0.83119  0.64822  1
