CIF file written using JARVIS-Tools package.
data_LiMn2F6
_symmetry_space_group_name_H-M  'P4_2/mnm'
_cell_length_a       4.68016
_cell_length_b       4.68016
_cell_length_c       9.47498
_cell_angle_alpha    90
_cell_angle_beta     90
_cell_angle_gamma    90

_symmetry_Int_Tables_number  136
_chemical_formula_structural  LiMn2F6
_chemical_formula_sum  Li2Mn4F2
_cell_volume  207.53935412902518
_cell_formula_units_Z  2
loop_
  _symmetry_equiv_pos_site_id
 _symmetry_equiv_pos_as_xyz
 1  'x, y, z'
loop_
 _atom_site_type_symbol
 _atom_site_label
 _atom_site_symmetry_multiplicity
 _atom_site_fract_x
 _atom_site_fract_y
 _atom_site_fract_z
 _atom_site_fract_occupancy
 F  F1  1  0.29755  0.70245  0.67118  1
 F  F2  1  0.30141  0.69859  0.00000  1
 F  F3  1  0.20245  0.20245  0.17118  1
 F  F4  1  0.79755  0.79755  0.82882  1
 F  F5  1  0.29755  0.70245  0.32882  1
 F  F6  1  0.79755  0.79755  0.17118  1
 F  F7  1  0.19859  0.19859  0.50000  1
 F  F8  1  0.80141  0.80141  0.50000  1
 F  F9  1  0.69859  0.30141  0.00000  1
 F  F10  1  0.70245  0.29755  0.67118  1
 F  F11  1  0.20245  0.20245  0.82882  1
 F  F12  1  0.70245  0.29755  0.32882  1
 Li  Li1  1  0.50000  0.50000  0.50000  1
 Li  Li2  1  0.00000  0.00000  0.00000  1
 Mn  Mn1  1  0.50000  0.50000  0.83433  1
 Mn  Mn2  1  0.00000  0.00000  0.66567  1
 Mn  Mn3  1  0.00000  0.00000  0.33433  1
 Mn  Mn4  1  0.50000  0.50000  0.16567  1
