CIF file written using JARVIS-Tools package.
data_AgCl2
_symmetry_space_group_name_H-M  'C2/m'
_cell_length_a       3.66074
_cell_length_b       4.07171
_cell_length_c       5.43538
_cell_angle_alpha    81.9423
_cell_angle_beta     89.7868
_cell_angle_gamma    63.119

_symmetry_Int_Tables_number  12
_chemical_formula_structural  AgCl2
_chemical_formula_sum  AgCl2
_cell_volume  71.3860912023554
_cell_formula_units_Z  1
loop_
  _symmetry_equiv_pos_site_id
 _symmetry_equiv_pos_as_xyz
 1  'x, y, z'
loop_
 _atom_site_type_symbol
 _atom_site_label
 _atom_site_symmetry_multiplicity
 _atom_site_fract_x
 _atom_site_fract_y
 _atom_site_fract_z
 _atom_site_fract_occupancy
 Ag  Ag1  1  0.92128  0.20445  0.91389  1
 Cl  Cl1  1  0.26906  0.51006  0.64684  1
 Cl  Cl2  1  0.57353  0.89881  0.18092  1
