CIF file written using JARVIS-Tools package.
data_FeOF
_symmetry_space_group_name_H-M  'Pm'
_cell_length_a       13.9354
_cell_length_b       4.62208
_cell_length_c       2.99932
_cell_angle_alpha    90
_cell_angle_beta     90
_cell_angle_gamma    90.4761

_symmetry_Int_Tables_number  6
_chemical_formula_structural  FeOF
_chemical_formula_sum  Fe6O6F6
_cell_volume  193.18032320961615
_cell_formula_units_Z  6
loop_
  _symmetry_equiv_pos_site_id
 _symmetry_equiv_pos_as_xyz
 1  'x, y, z'
loop_
 _atom_site_type_symbol
 _atom_site_label
 _atom_site_symmetry_multiplicity
 _atom_site_fract_x
 _atom_site_fract_y
 _atom_site_fract_z
 _atom_site_fract_occupancy
 F  F1  1  0.92694  0.19121  0.50000  1
 F  F2  1  0.59974  0.22661  0.50000  1
 F  F3  1  0.44202  0.31723  0.00000  1
 F  F4  1  0.22717  0.69185  0.00000  1
 F  F5  1  0.06387  0.76369  0.50000  1
 F  F6  1  0.90015  0.68901  0.00000  1
 Fe  Fe1  1  0.00425  0.00208  0.00000  1
 Fe  Fe2  1  0.81102  0.49788  0.50000  1
 Fe  Fe3  1  0.67348  0.99410  0.00000  1
 Fe  Fe4  1  0.50596  0.57878  0.50000  1
 Fe  Fe5  1  0.33803  0.00187  0.00000  1
 Fe  Fe6  1  0.16917  0.42431  0.50000  1
 O  O1  1  0.73393  0.81391  0.50000  1
 O  O2  1  0.39877  0.80528  0.50000  1
 O  O3  1  0.27385  0.19436  0.50000  1
 O  O4  1  0.09961  0.27016  0.00000  1
 O  O5  1  0.76027  0.29930  0.00000  1
 O  O6  1  0.57176  0.73835  0.00000  1
