CIF file written using JARVIS-Tools package.
data_Li4CoSn3P4O16
_symmetry_space_group_name_H-M  'Pm'
_cell_length_a       6.83404
_cell_length_b       4.77057
_cell_length_c       10.731
_cell_angle_alpha    88.6711
_cell_angle_beta     90
_cell_angle_gamma    90

_symmetry_Int_Tables_number  6
_chemical_formula_structural  Li4CoSn3P4O16
_chemical_formula_sum  Li4CoSn3P4O6
_cell_volume  349.76242321892437
_cell_formula_units_Z  1
loop_
  _symmetry_equiv_pos_site_id
 _symmetry_equiv_pos_as_xyz
 1  'x, y, z'
loop_
 _atom_site_type_symbol
 _atom_site_label
 _atom_site_symmetry_multiplicity
 _atom_site_fract_x
 _atom_site_fract_y
 _atom_site_fract_z
 _atom_site_fract_occupancy
 Co  Co1  1  0.00000  0.04265  0.27046  1
 Li  Li1  1  0.27788  0.95028  0.00346  1
 Li  Li2  1  0.72212  0.95028  0.00346  1
 Li  Li3  1  0.76533  0.50525  0.48563  1
 Li  Li4  1  0.23467  0.50525  0.48563  1
 O  O1  1  0.50000  0.24689  0.55293  1
 O  O2  1  0.17970  0.79454  0.62889  1
 O  O3  1  0.68425  0.23238  0.34981  1
 O  O4  1  0.00000  0.24576  0.55348  1
 O  O5  1  0.00000  0.30140  0.11853  1
 O  O6  1  0.31703  0.25737  0.85500  1
 O  O7  1  0.31575  0.23238  0.34981  1
 O  O8  1  0.50000  0.20740  0.05739  1
 O  O9  1  0.00000  0.71931  0.96096  1
 O  O10  1  0.82107  0.76754  0.16339  1
 O  O11  1  0.50000  0.78990  0.43303  1
 O  O12  1  0.50000  0.68304  0.94700  1
 O  O13  1  0.68297  0.25737  0.85500  1
 O  O14  1  0.82030  0.79454  0.62889  1
 O  O15  1  0.17893  0.76754  0.16339  1
 O  O16  1  0.00000  0.79874  0.42374  1
 P  P1  1  0.50000  0.11096  0.41971  1
 P  P2  1  0.50000  0.36523  0.92808  1
 P  P3  1  0.00000  0.62160  0.10164  1
 P  P4  1  0.00000  0.92479  0.55758  1
 Sn  Sn1  1  0.50000  0.92023  0.70324  1
 Sn  Sn2  1  0.50000  0.55711  0.21784  1
 Sn  Sn3  1  0.00000  0.45025  0.78203  1
