CIF file written using JARVIS-Tools package.
data_GaFe2
_symmetry_space_group_name_H-M  'Fmmm'
_cell_length_a       6.10601
_cell_length_b       5.97202
_cell_length_c       2.58258
_cell_angle_alpha    80.5749
_cell_angle_beta     74.7643
_cell_angle_gamma    24.6609

_symmetry_Int_Tables_number  69
_chemical_formula_structural  GaFe2
_chemical_formula_sum  GaFe2
_cell_volume  37.24811003894665
_cell_formula_units_Z  1
loop_
  _symmetry_equiv_pos_site_id
 _symmetry_equiv_pos_as_xyz
 1  'x, y, z'
loop_
 _atom_site_type_symbol
 _atom_site_label
 _atom_site_symmetry_multiplicity
 _atom_site_fract_x
 _atom_site_fract_y
 _atom_site_fract_z
 _atom_site_fract_occupancy
 Fe  Fe1  1  0.33123  0.33123  0.66877  1
 Fe  Fe2  1  0.66877  0.66877  0.33123  1
 Ga  Ga1  1  0.00000  0.00000  0.00000  1
