CIF file written using JARVIS-Tools package.
data_LiFeSiO4
_symmetry_space_group_name_H-M  'P2_12_12_1'
_cell_length_a       4.75905
_cell_length_b       6.10046
_cell_length_c       10.0296
_cell_angle_alpha    90
_cell_angle_beta     90
_cell_angle_gamma    90

_symmetry_Int_Tables_number  19
_chemical_formula_structural  LiFeSiO4
_chemical_formula_sum  Li4Fe4Si4O6
_cell_volume  291.1844768959855
_cell_formula_units_Z  4
loop_
  _symmetry_equiv_pos_site_id
 _symmetry_equiv_pos_as_xyz
 1  'x, y, z'
loop_
 _atom_site_type_symbol
 _atom_site_label
 _atom_site_symmetry_multiplicity
 _atom_site_fract_x
 _atom_site_fract_y
 _atom_site_fract_z
 _atom_site_fract_occupancy
 Fe  Fe1  1  0.49992  0.75155  0.24979  1
 Fe  Fe2  1  0.50008  0.25155  0.25021  1
 Fe  Fe3  1  0.00008  0.24845  0.74979  1
 Fe  Fe4  1  0.99992  0.74845  0.75021  1
 Li  Li1  1  0.96168  0.00207  0.03096  1
 Li  Li2  1  0.03832  0.50207  0.46904  1
 Li  Li3  1  0.53832  0.99793  0.53096  1
 Li  Li4  1  0.46168  0.49793  0.96904  1
 O  O1  1  0.76388  0.27884  0.09878  1
 O  O2  1  0.74357  0.00132  0.34094  1
 O  O3  1  0.75767  0.50150  0.31047  1
 O  O4  1  0.76450  0.72478  0.09908  1
 O  O5  1  0.25643  0.50132  0.15906  1
 O  O6  1  0.26388  0.22116  0.90122  1
 O  O7  1  0.23550  0.22478  0.40092  1
 O  O8  1  0.24233  0.00150  0.18953  1
 O  O9  1  0.73550  0.27522  0.59908  1
 O  O10  1  0.74233  0.49850  0.81047  1
 O  O11  1  0.24357  0.49868  0.65906  1
 O  O12  1  0.25767  0.99850  0.68953  1
 O  O13  1  0.23612  0.77884  0.40122  1
 O  O14  1  0.75643  0.99868  0.84094  1
 O  O15  1  0.73612  0.72116  0.59878  1
 O  O16  1  0.26450  0.77522  0.90092  1
 Si  Si1  1  0.91530  0.50160  0.15785  1
 Si  Si2  1  0.08470  0.00160  0.34215  1
 Si  Si3  1  0.58470  0.49840  0.65785  1
 Si  Si4  1  0.41530  0.99840  0.84215  1
