CIF file written using JARVIS-Tools package.
data_Li3Co3NiO8
_symmetry_space_group_name_H-M  'P6_3mc'
_cell_length_a       5.60917
_cell_length_b       5.60928
_cell_length_c       9.07258
_cell_angle_alpha    89.9993
_cell_angle_beta     89.9997
_cell_angle_gamma    59.9995

_symmetry_Int_Tables_number  186
_chemical_formula_structural  Li3Co3NiO8
_chemical_formula_sum  Li6Co6Ni2O6
_cell_volume  247.20895405300325
_cell_formula_units_Z  2
loop_
  _symmetry_equiv_pos_site_id
 _symmetry_equiv_pos_as_xyz
 1  'x, y, z'
loop_
 _atom_site_type_symbol
 _atom_site_label
 _atom_site_symmetry_multiplicity
 _atom_site_fract_x
 _atom_site_fract_y
 _atom_site_fract_z
 _atom_site_fract_occupancy
 Co  Co1  1  0.16849  0.16852  0.71427  1
 Co  Co2  1  0.66300  0.16852  0.71426  1
 Co  Co3  1  0.16849  0.66303  0.71427  1
 Co  Co4  1  0.83147  0.33702  0.21427  1
 Co  Co5  1  0.33696  0.83153  0.21427  1
 Co  Co6  1  0.83147  0.83153  0.21427  1
 Li  Li1  1  0.16894  0.16903  0.44738  1
 Li  Li2  1  0.83103  0.33798  0.94738  1
 Li  Li3  1  0.33817  0.83092  0.94736  1
 Li  Li4  1  0.66180  0.16910  0.44736  1
 Li  Li5  1  0.16897  0.66198  0.44737  1
 Li  Li6  1  0.83099  0.83097  0.94737  1
 Ni  Ni1  1  0.33332  0.33335  0.99185  1
 Ni  Ni2  1  0.66664  0.66669  0.49185  1
 O  O1  1  0.33332  0.33336  0.60312  1
 O  O2  1  0.96640  0.51680  0.34063  1
 O  O3  1  0.15738  0.15742  0.09414  1
 O  O4  1  0.03356  0.48324  0.84063  1
 O  O5  1  0.15738  0.68521  0.09414  1
 O  O6  1  0.00000  0.00001  0.82061  1
 O  O7  1  -0.00004  0.00002  0.32061  1
 O  O8  1  0.31478  0.84263  0.59414  1
 O  O9  1  0.68518  0.15742  0.09414  1
 O  O10  1  0.51674  0.51681  0.34063  1
 O  O11  1  0.66664  0.66669  0.10312  1
 O  O12  1  0.51674  0.96646  0.34064  1
 O  O13  1  0.84258  0.31483  0.59414  1
 O  O14  1  0.48322  0.03359  0.84064  1
 O  O15  1  0.48322  0.48323  0.84063  1
 O  O16  1  0.84258  0.84263  0.59414  1
