CIF file written using JARVIS-Tools package.
data_ScBeSe
_symmetry_space_group_name_H-M  'P4mm'
_cell_length_a       3.0226
_cell_length_b       3.0226
_cell_length_c       7.32445
_cell_angle_alpha    90
_cell_angle_beta     90
_cell_angle_gamma    90

_symmetry_Int_Tables_number  99
_chemical_formula_structural  ScBeSe
_chemical_formula_sum  ScBeSe
_cell_volume  66.91715682350655
_cell_formula_units_Z  1
loop_
  _symmetry_equiv_pos_site_id
 _symmetry_equiv_pos_as_xyz
 1  'x, y, z'
loop_
 _atom_site_type_symbol
 _atom_site_label
 _atom_site_symmetry_multiplicity
 _atom_site_fract_x
 _atom_site_fract_y
 _atom_site_fract_z
 _atom_site_fract_occupancy
 Be  Be1  1  0.00000  0.00000  0.37113  1
 Sc  Sc1  1  0.00000  0.00000  0.01501  1
 Se  Se1  1  0.00000  0.00000  0.65985  1
