CIF file written using JARVIS-Tools package.
data_Ce2Fe3Rh
_symmetry_space_group_name_H-M  'R-3m'
_cell_length_a       5.34966
_cell_length_b       5.34967
_cell_length_c       5.34966
_cell_angle_alpha    55.65
_cell_angle_beta     55.65
_cell_angle_gamma    55.65

_symmetry_Int_Tables_number  166
_chemical_formula_structural  Ce2Fe3Rh
_chemical_formula_sum  Ce2Fe3Rh
_cell_volume  97.33206699405224
_cell_formula_units_Z  1
loop_
  _symmetry_equiv_pos_site_id
 _symmetry_equiv_pos_as_xyz
 1  'x, y, z'
loop_
 _atom_site_type_symbol
 _atom_site_label
 _atom_site_symmetry_multiplicity
 _atom_site_fract_x
 _atom_site_fract_y
 _atom_site_fract_z
 _atom_site_fract_occupancy
 Ce  Ce1  1  0.12190  0.12190  0.12190  1
 Ce  Ce2  1  0.87810  0.87810  0.87810  1
 Fe  Fe1  1  0.50000  0.00000  0.50000  1
 Fe  Fe2  1  0.00000  0.50000  0.50000  1
 Fe  Fe3  1  0.50000  0.50000  0.00000  1
 Rh  Rh1  1  0.50000  0.50000  0.50000  1
