CIF file written using JARVIS-Tools package.
data_Ni6O7
_symmetry_space_group_name_H-M  'P-1'
_cell_length_a       5.03646
_cell_length_b       5.80064
_cell_length_c       8.78415
_cell_angle_alpha    89.5692
_cell_angle_beta     95.6587
_cell_angle_gamma    107.026

_symmetry_Int_Tables_number  2
_chemical_formula_structural  Ni6O7
_chemical_formula_sum  Ni2O4
_cell_volume  244.12109512638122
_cell_formula_units_Z  2
loop_
  _symmetry_equiv_pos_site_id
 _symmetry_equiv_pos_as_xyz
 1  'x, y, z'
loop_
 _atom_site_type_symbol
 _atom_site_label
 _atom_site_symmetry_multiplicity
 _atom_site_fract_x
 _atom_site_fract_y
 _atom_site_fract_z
 _atom_site_fract_occupancy
 Ni  Ni1  1  0.85535  0.21286  0.71235  1
 Ni  Ni2  1  0.57143  0.64286  0.14286  1
 Ni  Ni3  1  0.84367  0.70955  0.71109  1
 Ni  Ni4  1  0.71767  0.43298  0.42539  1
 Ni  Ni5  1  0.57143  0.14286  0.14286  1
 Ni  Ni6  1  0.13268  0.27896  0.28937  1
 Ni  Ni7  1  0.42519  0.85273  0.86033  1
 Ni  Ni8  1  0.29919  0.57616  0.57462  1
 Ni  Ni9  1  0.15183  0.79164  0.29183  1
 Ni  Ni10  1  0.01018  0.00675  0.99634  1
 Ni  Ni11  1  0.99103  0.49407  0.99388  1
 Ni  Ni12  1  0.28751  0.07286  0.57337  1
 O  O1  1  0.87163  0.97016  0.20163  1
 O  O2  1  0.27913  0.82696  0.06783  1
 O  O3  1  0.73350  0.16614  0.93145  1
 O  O4  1  0.72999  0.69905  0.94445  1
 O  O5  1  0.86373  0.45876  0.21788  1
 O  O6  1  0.03711  0.74199  0.50213  1
 O  O7  1  0.40935  0.11957  0.35426  1
 O  O8  1  0.41287  0.58667  0.34126  1
 O  O9  1  0.11330  0.00759  0.77824  1
 O  O10  1  0.10575  0.54372  0.78358  1
 O  O11  1  0.27123  0.31555  0.08408  1
 O  O12  1  0.58110  0.40872  0.62606  1
 O  O13  1  0.56176  0.87699  0.65966  1
 O  O14  1  0.02956  0.27812  0.50748  1
