CIF file written using JARVIS-Tools package.
data_Li3Mn2P2C2O14
_symmetry_space_group_name_H-M  'P1'
_cell_length_a       4.97697
_cell_length_b       6.15364
_cell_length_c       8.49198
_cell_angle_alpha    97.5339
_cell_angle_beta     95.1083
_cell_angle_gamma    93.9957

_symmetry_Int_Tables_number  1
_chemical_formula_structural  Li3Mn2P2C2O14
_chemical_formula_sum  Li3Mn2P2C2O4
_cell_volume  255.93681188375706
_cell_formula_units_Z  1
loop_
  _symmetry_equiv_pos_site_id
 _symmetry_equiv_pos_as_xyz
 1  'x, y, z'
loop_
 _atom_site_type_symbol
 _atom_site_label
 _atom_site_symmetry_multiplicity
 _atom_site_fract_x
 _atom_site_fract_y
 _atom_site_fract_z
 _atom_site_fract_occupancy
 C  C1  1  0.25530  0.25533  0.06048  1
 C  C2  1  0.74139  0.74148  0.93761  1
 Li  Li1  1  0.73669  0.54284  0.24272  1
 Li  Li2  1  0.20169  0.52693  0.81603  1
 Li  Li3  1  0.36284  0.00622  0.77884  1
 Mn  Mn1  1  0.18254  0.22584  0.32915  1
 Mn  Mn2  1  0.79636  0.76202  0.64973  1
 O  O1  1  0.02120  0.20091  0.10993  1
 O  O2  1  0.74502  0.70537  0.07671  1
 O  O3  1  0.29366  0.27139  0.91805  1
 O  O4  1  0.24943  0.92379  0.30104  1
 O  O5  1  0.10947  0.53832  0.34157  1
 O  O6  1  0.44795  0.29154  0.18105  1
 O  O7  1  0.58307  0.70516  0.44479  1
 O  O8  1  0.71715  0.06963  0.68134  1
 O  O9  1  0.17679  0.83635  0.58117  1
 O  O10  1  0.85041  0.16282  0.41259  1
 O  O11  1  0.87313  0.45524  0.65423  1
 O  O12  1  0.52285  0.73284  0.83583  1
 O  O13  1  0.41656  0.28664  0.52240  1
 O  O14  1  0.96677  0.78848  0.86781  1
 P  P1  1  0.71751  0.24278  0.56449  1
 P  P2  1  0.27815  0.75427  0.41951  1
