CIF file written using JARVIS-Tools package.
data_Cd2GaCuSe4
_symmetry_space_group_name_H-M  'I-42m'
_cell_length_a       7.28024
_cell_length_b       7.28024
_cell_length_c       7.28024
_cell_angle_alpha    132.308
_cell_angle_beta     132.308
_cell_angle_gamma    69.7429

_symmetry_Int_Tables_number  121
_chemical_formula_structural  Cd2GaCuSe4
_chemical_formula_sum  Cd2GaCuSe4
_cell_volume  206.96913075627103
_cell_formula_units_Z  1
loop_
  _symmetry_equiv_pos_site_id
 _symmetry_equiv_pos_as_xyz
 1  'x, y, z'
loop_
 _atom_site_type_symbol
 _atom_site_label
 _atom_site_symmetry_multiplicity
 _atom_site_fract_x
 _atom_site_fract_y
 _atom_site_fract_z
 _atom_site_fract_occupancy
 Cd  Cd1  1  0.75000  0.25000  0.50000  1
 Cd  Cd2  1  0.25000  0.75000  0.50000  1
 Cu  Cu1  1  0.00000  0.00000  0.00000  1
 Ga  Ga1  1  0.50000  0.50000  0.00000  1
 Se  Se1  1  0.64011  0.64011  0.50166  1
 Se  Se2  1  0.35989  0.86155  0.00000  1
 Se  Se3  1  0.13845  0.13845  0.49834  1
 Se  Se4  1  0.86155  0.35989  0.00000  1
