CIF file written using JARVIS-Tools package.
data_CIN
_symmetry_space_group_name_H-M  'R3m'
_cell_length_a       4.30329
_cell_length_b       4.30329
_cell_length_c       4.30328
_cell_angle_alpha    101.005
_cell_angle_beta     101.005
_cell_angle_gamma    101.005

_symmetry_Int_Tables_number  160
_chemical_formula_structural  CIN
_chemical_formula_sum  CIN
_cell_volume  74.61720691980942
_cell_formula_units_Z  1
loop_
  _symmetry_equiv_pos_site_id
 _symmetry_equiv_pos_as_xyz
 1  'x, y, z'
loop_
 _atom_site_type_symbol
 _atom_site_label
 _atom_site_symmetry_multiplicity
 _atom_site_fract_x
 _atom_site_fract_y
 _atom_site_fract_z
 _atom_site_fract_occupancy
 C  C1  1  0.34254  0.34254  0.34254  1
 I  I1  1  -0.00413  -0.00413  -0.00413  1
 N  N1  1  0.54159  0.54159  0.54159  1
