CIF file written using JARVIS-Tools package.
data_V3P2O8
_symmetry_space_group_name_H-M  'P2_1/c'
_cell_length_a       4.79531
_cell_length_b       10.4718
_cell_length_c       6.00446
_cell_angle_alpha    91.7933
_cell_angle_beta     90.0001
_cell_angle_gamma    90.0002

_symmetry_Int_Tables_number  14
_chemical_formula_structural  V3P2O8
_chemical_formula_sum  V6P4O6
_cell_volume  301.3705222223935
_cell_formula_units_Z  2
loop_
  _symmetry_equiv_pos_site_id
 _symmetry_equiv_pos_as_xyz
 1  'x, y, z'
loop_
 _atom_site_type_symbol
 _atom_site_label
 _atom_site_symmetry_multiplicity
 _atom_site_fract_x
 _atom_site_fract_y
 _atom_site_fract_z
 _atom_site_fract_occupancy
 O  O1  1  0.23205  0.66188  0.45947  1
 O  O2  1  0.19414  0.67064  0.05242  1
 O  O3  1  0.30585  0.17064  0.05243  1
 O  O4  1  0.73204  0.83812  0.54052  1
 O  O5  1  0.80586  0.32936  0.94758  1
 O  O6  1  0.31383  0.95634  0.25507  1
 O  O7  1  0.18618  0.45634  0.25507  1
 O  O8  1  0.69413  0.82936  0.94757  1
 O  O9  1  0.68617  0.04366  0.74493  1
 O  O10  1  0.74415  0.10212  0.26889  1
 O  O11  1  0.25585  0.89788  0.73110  1
 O  O12  1  0.24415  0.39788  0.73111  1
 O  O13  1  0.76795  0.33812  0.54053  1
 O  O14  1  0.26796  0.16188  0.45948  1
 O  O15  1  0.75585  0.60212  0.26889  1
 O  O16  1  0.81383  0.54366  0.74494  1
 P  P1  1  0.42495  0.09537  0.24833  1
 P  P2  1  0.07506  0.59536  0.24832  1
 P  P3  1  0.57505  0.90463  0.75167  1
 P  P4  1  0.92495  0.40464  0.75168  1
 V  V1  1  0.51067  0.77463  0.24569  1
 V  V2  1  0.00000  -0.00000  0.50000  1
 V  V3  1  0.50000  0.50000  0.50000  1
 V  V4  1  0.48933  0.22536  0.75431  1
 V  V5  1  0.01067  0.72536  0.75430  1
 V  V6  1  0.98933  0.27464  0.24570  1
