CIF file written using JARVIS-Tools package.
data_Li3FeO3
_symmetry_space_group_name_H-M  'P4_2/mnm'
_cell_length_a       8.59185
_cell_length_b       8.59183
_cell_length_c       3.67553
_cell_angle_alpha    90.0001
_cell_angle_beta     89.9999
_cell_angle_gamma    89.9998

_symmetry_Int_Tables_number  136
_chemical_formula_structural  Li3FeO3
_chemical_formula_sum  Li2Fe4O2
_cell_volume  271.3264732454326
_cell_formula_units_Z  4
loop_
  _symmetry_equiv_pos_site_id
 _symmetry_equiv_pos_as_xyz
 1  'x, y, z'
loop_
 _atom_site_type_symbol
 _atom_site_label
 _atom_site_symmetry_multiplicity
 _atom_site_fract_x
 _atom_site_fract_y
 _atom_site_fract_z
 _atom_site_fract_occupancy
 Fe  Fe1  1  0.61783  0.61784  -0.00000  1
 Fe  Fe2  1  0.11784  0.88216  0.50000  1
 Fe  Fe3  1  0.38216  0.38216  0.00000  1
 Fe  Fe4  1  0.88216  0.11784  0.50000  1
 Li  Li1  1  0.89406  0.63710  0.50000  1
 Li  Li2  1  0.86290  0.39406  -0.00000  1
 Li  Li3  1  0.83849  0.83849  -0.00000  1
 Li  Li4  1  0.66151  0.33850  0.50000  1
 Li  Li5  1  0.10594  0.36289  0.50000  1
 Li  Li6  1  0.60594  0.13712  0.00000  1
 Li  Li7  1  0.39406  0.86290  -0.00000  1
 Li  Li8  1  0.36289  0.10594  0.50000  1
 Li  Li9  1  0.33849  0.66151  0.50000  1
 Li  Li10  1  0.16151  0.16150  0.00000  1
 Li  Li11  1  0.13712  0.60594  0.00000  1
 Li  Li12  1  0.63711  0.89406  0.50000  1
 O  O1  1  0.82723  0.61250  -0.00000  1
 O  O2  1  0.67276  0.11250  0.50000  1
 O  O3  1  0.61250  0.82724  -0.00000  1
 O  O4  1  0.60342  0.39658  0.00000  1
 O  O5  1  0.39658  0.60342  -0.00000  1
 O  O6  1  0.17276  0.38750  0.00000  1
 O  O7  1  0.32724  0.88750  0.50000  1
 O  O8  1  0.11250  0.67276  0.50000  1
 O  O9  1  0.10342  0.10342  0.50000  1
 O  O10  1  0.88750  0.32724  0.50000  1
 O  O11  1  0.38750  0.17276  0.00000  1
 O  O12  1  0.89658  0.89658  0.50000  1
