CIF file written using JARVIS-Tools package.
data_Cr2CuS4
_symmetry_space_group_name_H-M  'C2/m'
_cell_length_a       6.4645
_cell_length_b       6.4645
_cell_length_c       5.67513
_cell_angle_alpha    65.2763
_cell_angle_beta     65.2763
_cell_angle_gamma    29.9807

_symmetry_Int_Tables_number  12
_chemical_formula_structural  Cr2CuS4
_chemical_formula_sum  Cr2CuS4
_cell_volume  106.82695022847102
_cell_formula_units_Z  1
loop_
  _symmetry_equiv_pos_site_id
 _symmetry_equiv_pos_as_xyz
 1  'x, y, z'
loop_
 _atom_site_type_symbol
 _atom_site_label
 _atom_site_symmetry_multiplicity
 _atom_site_fract_x
 _atom_site_fract_y
 _atom_site_fract_z
 _atom_site_fract_occupancy
 Cr  Cr1  1  0.75657  0.75657  0.19050  1
 Cr  Cr2  1  0.24343  0.24343  0.80950  1
 Cu  Cu1  1  0.50000  0.50000  0.50000  1
 S  S1  1  0.38340  0.38340  0.96143  1
 S  S2  1  0.61660  0.61660  0.03857  1
 S  S3  1  0.85369  0.85369  0.48525  1
 S  S4  1  0.14631  0.14631  0.51475  1
