CIF file written using JARVIS-Tools package.
data_Tl3AsF6
_symmetry_space_group_name_H-M  'C2/m'
_cell_length_a       7.07165
_cell_length_b       7.01554
_cell_length_c       7.08097
_cell_angle_alpha    114.236
_cell_angle_beta     115.93
_cell_angle_gamma    114.17

_symmetry_Int_Tables_number  12
_chemical_formula_structural  Tl3AsF6
_chemical_formula_sum  Tl3AsF6
_cell_volume  200.4706105055179
_cell_formula_units_Z  1
loop_
  _symmetry_equiv_pos_site_id
 _symmetry_equiv_pos_as_xyz
 1  'x, y, z'
loop_
 _atom_site_type_symbol
 _atom_site_label
 _atom_site_symmetry_multiplicity
 _atom_site_fract_x
 _atom_site_fract_y
 _atom_site_fract_z
 _atom_site_fract_occupancy
 As  As1  1  0.00000  0.00000  0.00000  1
 F  F1  1  -0.07016  0.67798  0.67888  1
 F  F2  1  0.07016  0.32202  0.32112  1
 F  F3  1  0.67899  0.67824  -0.06964  1
 F  F4  1  0.32101  0.32176  0.06964  1
 F  F5  1  0.67270  -0.07182  0.67314  1
 F  F6  1  0.32730  0.07182  0.32686  1
 Tl  Tl1  1  0.00000  0.50000  -0.00000  1
 Tl  Tl2  1  0.50000  0.00000  0.00000  1
 Tl  Tl3  1  -0.00000  -0.00000  0.50000  1
