CIF file written using JARVIS-Tools package.
data_TcCl6O6
_symmetry_space_group_name_H-M  'P1'
_cell_length_a       5.93755
_cell_length_b       6.15829
_cell_length_c       8.45487
_cell_angle_alpha    77.1827
_cell_angle_beta     64.5526
_cell_angle_gamma    91.0567

_symmetry_Int_Tables_number  1
_chemical_formula_structural  TcCl6O6
_chemical_formula_sum  TcCl6O6
_cell_volume  269.9219689452316
_cell_formula_units_Z  1
loop_
  _symmetry_equiv_pos_site_id
 _symmetry_equiv_pos_as_xyz
 1  'x, y, z'
loop_
 _atom_site_type_symbol
 _atom_site_label
 _atom_site_symmetry_multiplicity
 _atom_site_fract_x
 _atom_site_fract_y
 _atom_site_fract_z
 _atom_site_fract_occupancy
 Cl  Cl1  1  0.32036  0.94388  0.72861  1
 Cl  Cl2  1  0.68119  0.95371  0.28160  1
 Cl  Cl3  1  0.93684  0.30470  0.88013  1
 Cl  Cl4  1  0.71451  0.78887  0.93544  1
 Cl  Cl5  1  0.29110  0.11620  0.07201  1
 Cl  Cl6  1  0.07384  0.60451  0.12800  1
 O  O1  1  0.26781  0.34525  0.42710  1
 O  O2  1  0.48552  0.41756  0.31217  1
 O  O3  1  0.54374  0.50068  0.64512  1
 O  O4  1  0.69794  0.36670  0.60370  1
 O  O5  1  -0.03708  0.92076  0.51013  1
 O  O6  1  0.08625  0.76153  0.49106  1
 Tc  Tc1  1  0.00198  0.95366  0.00393  1
