CIF file written using JARVIS-Tools package.
data_Li2MnP2O8
_symmetry_space_group_name_H-M  'P-1'
_cell_length_a       4.75774
_cell_length_b       8.06264
_cell_length_c       8.62652
_cell_angle_alpha    115.963
_cell_angle_beta     103.734
_cell_angle_gamma    89.6616

_symmetry_Int_Tables_number  2
_chemical_formula_structural  Li2MnP2O8
_chemical_formula_sum  Li4Mn2P4O6
_cell_volume  287.18269359133325
_cell_formula_units_Z  2
loop_
  _symmetry_equiv_pos_site_id
 _symmetry_equiv_pos_as_xyz
 1  'x, y, z'
loop_
 _atom_site_type_symbol
 _atom_site_label
 _atom_site_symmetry_multiplicity
 _atom_site_fract_x
 _atom_site_fract_y
 _atom_site_fract_z
 _atom_site_fract_occupancy
 Li  Li1  1  0.11707  0.91292  0.68403  1
 Li  Li2  1  0.36319  0.58927  0.39245  1
 Li  Li3  1  0.63681  0.41073  0.60755  1
 Li  Li4  1  0.88293  0.08708  0.31597  1
 Mn  Mn1  1  0.27404  0.76265  0.03569  1
 Mn  Mn2  1  0.72596  0.23735  0.96431  1
 O  O1  1  0.02509  0.84072  0.87684  1
 O  O2  1  0.08511  0.52036  0.87848  1
 O  O3  1  0.91489  0.47964  0.12152  1
 O  O4  1  0.00362  0.81692  0.18001  1
 O  O5  1  0.46937  0.29773  0.78883  1
 O  O6  1  0.55145  0.98407  0.82255  1
 O  O7  1  0.02099  0.73861  0.43114  1
 O  O8  1  0.62018  0.66315  0.61206  1
 O  O9  1  0.44971  0.28575  0.09570  1
 O  O10  1  0.99639  0.18308  0.81999  1
 O  O11  1  0.53063  0.70226  0.21117  1
 O  O12  1  0.55028  0.71424  0.90430  1
 O  O13  1  0.97901  0.26139  0.56886  1
 O  O14  1  0.37982  0.33684  0.38794  1
 O  O15  1  0.44855  0.01593  0.17745  1
 O  O16  1  0.97491  0.15928  0.12316  1
 P  P1  1  0.31486  0.19952  0.19435  1
 P  P2  1  0.13586  0.31762  0.76277  1
 P  P3  1  0.68514  0.80048  0.80565  1
 P  P4  1  0.86414  0.68238  0.23723  1
