CIF file written using JARVIS-Tools package.
data_MnCoO3
_symmetry_space_group_name_H-M  'R-3'
_cell_length_a       4.75536
_cell_length_b       5.24934
_cell_length_c       4.75533
_cell_angle_alpha    63.0659
_cell_angle_beta     59.9994
_cell_angle_gamma    63.0663

_symmetry_Int_Tables_number  148
_chemical_formula_structural  MnCoO3
_chemical_formula_sum  Mn2Co2O6
_cell_volume  87.61839105571097
_cell_formula_units_Z  2
loop_
  _symmetry_equiv_pos_site_id
 _symmetry_equiv_pos_as_xyz
 1  'x, y, z'
loop_
 _atom_site_type_symbol
 _atom_site_label
 _atom_site_symmetry_multiplicity
 _atom_site_fract_x
 _atom_site_fract_y
 _atom_site_fract_z
 _atom_site_fract_occupancy
 Co  Co1  1  0.65414  0.03758  0.65414  1
 Co  Co2  1  0.34586  0.96242  0.34586  1
 Mn  Mn1  1  0.84927  0.45220  0.84926  1
 Mn  Mn2  1  0.15073  0.54780  0.15074  1
 O  O1  1  0.43743  0.74928  0.06292  1
 O  O2  1  0.75036  0.74929  0.43743  1
 O  O3  1  0.06292  0.74927  0.75037  1
 O  O4  1  0.56257  0.25072  0.93707  1
 O  O5  1  0.24964  0.25071  0.56257  1
 O  O6  1  0.93708  0.25073  0.24963  1
