CIF file written using JARVIS-Tools package.
data_LiMnPO4
_symmetry_space_group_name_H-M  'Pna2_1'
_cell_length_a       5.06105
_cell_length_b       10.2077
_cell_length_c       6.80849
_cell_angle_alpha    89.9999
_cell_angle_beta     90.0002
_cell_angle_gamma    90.0006

_symmetry_Int_Tables_number  33
_chemical_formula_structural  LiMnPO4
_chemical_formula_sum  Li4Mn4P4O6
_cell_volume  351.7360892011925
_cell_formula_units_Z  4
loop_
  _symmetry_equiv_pos_site_id
 _symmetry_equiv_pos_as_xyz
 1  'x, y, z'
loop_
 _atom_site_type_symbol
 _atom_site_label
 _atom_site_symmetry_multiplicity
 _atom_site_fract_x
 _atom_site_fract_y
 _atom_site_fract_z
 _atom_site_fract_occupancy
 Li  Li1  1  0.24622  0.15510  0.49620  1
 Li  Li2  1  0.74623  0.34490  0.99620  1
 Li  Li3  1  0.24623  0.65510  0.00380  1
 Li  Li4  1  0.74623  0.84490  0.50380  1
 Mn  Mn1  1  0.24374  0.65540  0.50405  1
 Mn  Mn2  1  0.74374  0.84460  0.00405  1
 Mn  Mn3  1  0.24374  0.15540  0.99595  1
 Mn  Mn4  1  0.74373  0.34460  0.49595  1
 O  O1  1  0.69002  0.44513  0.75307  1
 O  O2  1  0.55322  0.38028  0.23816  1
 O  O3  1  0.05322  0.11973  0.73817  1
 O  O4  1  0.19002  0.05487  0.25307  1
 O  O5  1  0.19002  0.55487  0.24693  1
 O  O6  1  0.63983  0.65960  0.56662  1
 O  O7  1  0.55323  0.88028  0.26184  1
 O  O8  1  0.69002  0.94513  0.74693  1
 O  O9  1  0.62262  0.15680  0.55894  1
 O  O10  1  0.63983  0.15960  0.93338  1
 O  O11  1  0.62263  0.65680  0.94106  1
 O  O12  1  0.12264  0.84320  0.44106  1
 O  O13  1  0.05323  0.61972  0.76184  1
 O  O14  1  0.13982  0.34040  0.43338  1
 O  O15  1  0.12262  0.34320  0.05894  1
 O  O16  1  0.13984  0.84040  0.06662  1
 P  P1  1  0.75018  0.09404  0.74318  1
 P  P2  1  0.25017  0.40596  0.24318  1
 P  P3  1  0.75018  0.59404  0.75682  1
 P  P4  1  0.25019  0.90596  0.25682  1
