CIF file written using JARVIS-Tools package.
data_Dy2SnAu2
_symmetry_space_group_name_H-M  'P4_2/mnm'
_cell_length_a       7.9089
_cell_length_b       7.9089
_cell_length_c       7.5049
_cell_angle_alpha    90
_cell_angle_beta     90
_cell_angle_gamma    90

_symmetry_Int_Tables_number  136
_chemical_formula_structural  Dy2SnAu2
_chemical_formula_sum  Dy8Sn4Au8
_cell_volume  469.43717720274645
_cell_formula_units_Z  4
loop_
  _symmetry_equiv_pos_site_id
 _symmetry_equiv_pos_as_xyz
 1  'x, y, z'
loop_
 _atom_site_type_symbol
 _atom_site_label
 _atom_site_symmetry_multiplicity
 _atom_site_fract_x
 _atom_site_fract_y
 _atom_site_fract_z
 _atom_site_fract_occupancy
 Au  Au1  1  0.12797  0.12797  0.23436  1
 Au  Au2  1  0.62797  0.37203  0.73436  1
 Au  Au3  1  0.37203  0.62797  0.73436  1
 Au  Au4  1  0.87203  0.87203  0.76564  1
 Au  Au5  1  0.12797  0.12797  0.76564  1
 Au  Au6  1  0.37203  0.62797  0.26564  1
 Au  Au7  1  0.62797  0.37203  0.26564  1
 Au  Au8  1  0.87203  0.87203  0.23436  1
 Dy  Dy1  1  0.83768  0.16232  0.50000  1
 Dy  Dy2  1  0.82250  0.17750  0.00000  1
 Dy  Dy3  1  0.17750  0.82250  0.00000  1
 Dy  Dy4  1  0.32250  0.32250  0.50000  1
 Dy  Dy5  1  0.67750  0.67750  0.50000  1
 Dy  Dy6  1  0.66232  0.66232  0.00000  1
 Dy  Dy7  1  0.33768  0.33768  0.00000  1
 Dy  Dy8  1  0.16232  0.83768  0.50000  1
 Sn  Sn1  1  0.00000  0.50000  0.75000  1
 Sn  Sn2  1  0.50000  0.00000  0.25000  1
 Sn  Sn3  1  0.00000  0.50000  0.25000  1
 Sn  Sn4  1  0.50000  0.00000  0.75000  1
