CIF file written using JARVIS-Tools package.
data_Dy3Pd4
_symmetry_space_group_name_H-M  'R-3'
_cell_length_a       7.84256
_cell_length_b       7.84256
_cell_length_c       7.84256
_cell_angle_alpha    114.273
_cell_angle_beta     114.273
_cell_angle_gamma    114.273

_symmetry_Int_Tables_number  148
_chemical_formula_structural  Dy3Pd4
_chemical_formula_sum  Dy6Pd8
_cell_volume  287.02883379117975
_cell_formula_units_Z  2
loop_
  _symmetry_equiv_pos_site_id
 _symmetry_equiv_pos_as_xyz
 1  'x, y, z'
loop_
 _atom_site_type_symbol
 _atom_site_label
 _atom_site_symmetry_multiplicity
 _atom_site_fract_x
 _atom_site_fract_y
 _atom_site_fract_z
 _atom_site_fract_occupancy
 Dy  Dy1  1  0.40484  0.02448  0.27603  1
 Dy  Dy2  1  0.02448  0.27603  0.40484  1
 Dy  Dy3  1  0.27603  0.40484  0.02448  1
 Dy  Dy4  1  0.59516  0.97552  0.72397  1
 Dy  Dy5  1  0.97552  0.72397  0.59516  1
 Dy  Dy6  1  0.72397  0.59516  0.97552  1
 Pd  Pd1  1  0.00000  0.00000  0.00000  1
 Pd  Pd2  1  0.50000  0.50000  0.50000  1
 Pd  Pd3  1  0.22838  0.06349  0.54931  1
 Pd  Pd4  1  0.06349  0.54931  0.22838  1
 Pd  Pd5  1  0.54931  0.22838  0.06349  1
 Pd  Pd6  1  0.77162  0.93651  0.45069  1
 Pd  Pd7  1  0.93651  0.45069  0.77162  1
 Pd  Pd8  1  0.45069  0.77162  0.93651  1
