CIF file written using JARVIS-Tools package.
data_SrF2
_symmetry_space_group_name_H-M  'Pnma'
_cell_length_a       3.78883
_cell_length_b       6.30556
_cell_length_c       7.46039
_cell_angle_alpha    90
_cell_angle_beta     90
_cell_angle_gamma    90

_symmetry_Int_Tables_number  62
_chemical_formula_structural  SrF2
_chemical_formula_sum  Sr4F8
_cell_volume  178.23357897481134
_cell_formula_units_Z  4
loop_
  _symmetry_equiv_pos_site_id
 _symmetry_equiv_pos_as_xyz
 1  'x, y, z'
loop_
 _atom_site_type_symbol
 _atom_site_label
 _atom_site_symmetry_multiplicity
 _atom_site_fract_x
 _atom_site_fract_y
 _atom_site_fract_z
 _atom_site_fract_occupancy
 F  F1  1  0.75000  0.14326  0.07132  1
 F  F2  1  0.75000  0.64326  0.42868  1
 F  F3  1  0.25000  0.85674  0.92868  1
 F  F4  1  0.25000  0.35674  0.57132  1
 F  F5  1  0.75000  0.52674  0.83121  1
 F  F6  1  0.75000  0.02674  0.66879  1
 F  F7  1  0.25000  0.47326  0.16879  1
 F  F8  1  0.25000  0.97326  0.33121  1
 Sr  Sr1  1  0.75000  0.25171  0.38506  1
 Sr  Sr2  1  0.75000  0.75171  0.11494  1
 Sr  Sr3  1  0.25000  0.74829  0.61494  1
 Sr  Sr4  1  0.25000  0.24829  0.88506  1
