CIF file written using JARVIS-Tools package.
data_LiCo2CuO6
_symmetry_space_group_name_H-M  'Cm'
_cell_length_a       6.54855
_cell_length_b       2.80573
_cell_length_c       5.60792
_cell_angle_alpha    90
_cell_angle_beta     101.291
_cell_angle_gamma    77.6299

_symmetry_Int_Tables_number  8
_chemical_formula_structural  LiCo2CuO6
_chemical_formula_sum  LiCo2CuO6
_cell_volume  98.6021314178742
_cell_formula_units_Z  1
loop_
  _symmetry_equiv_pos_site_id
 _symmetry_equiv_pos_as_xyz
 1  'x, y, z'
loop_
 _atom_site_type_symbol
 _atom_site_label
 _atom_site_symmetry_multiplicity
 _atom_site_fract_x
 _atom_site_fract_y
 _atom_site_fract_z
 _atom_site_fract_occupancy
 Co  Co1  1  -0.00084  0.00042  0.00028  1
 Co  Co2  1  0.68989  0.65506  0.64884  1
 Cu  Cu1  1  0.31833  0.34083  0.36685  1
 Li  Li1  1  0.63470  0.68265  0.13588  1
 O  O1  1  0.96817  0.51592  0.20354  1
 O  O2  1  0.39003  0.80498  0.59185  1
 O  O3  1  0.69736  0.15132  0.88211  1
 O  O4  1  0.29439  0.85280  0.13173  1
 O  O5  1  0.68479  0.15760  0.43290  1
 O  O6  1  0.98985  0.50508  0.77269  1
