CIF file written using JARVIS-Tools package.
data_Tb3Se2NO
_symmetry_space_group_name_H-M  'C2/m'
_cell_length_a       8.02273
_cell_length_b       8.02273
_cell_length_c       9.73552
_cell_angle_alpha    82.6137
_cell_angle_beta     82.6137
_cell_angle_gamma    28.2904

_symmetry_Int_Tables_number  12
_chemical_formula_structural  Tb3Se2NO
_chemical_formula_sum  Tb6Se4N2O2
_cell_volume  294.3579633288609
_cell_formula_units_Z  2
loop_
  _symmetry_equiv_pos_site_id
 _symmetry_equiv_pos_as_xyz
 1  'x, y, z'
loop_
 _atom_site_type_symbol
 _atom_site_label
 _atom_site_symmetry_multiplicity
 _atom_site_fract_x
 _atom_site_fract_y
 _atom_site_fract_z
 _atom_site_fract_occupancy
 N  N1  1  0.09656  0.09656  0.18845  1
 N  N2  1  0.90344  0.90344  0.81155  1
 O  O1  1  0.53674  0.53674  0.86115  1
 O  O2  1  0.46326  0.46326  0.13885  1
 Se  Se1  1  0.21296  0.21296  0.85052  1
 Se  Se2  1  0.78704  0.78704  0.14948  1
 Se  Se3  1  0.37172  0.37172  0.47275  1
 Se  Se4  1  0.62828  0.62828  0.52725  1
 Tb  Tb1  1  0.39197  0.39197  0.94494  1
 Tb  Tb2  1  0.60803  0.60803  0.05506  1
 Tb  Tb3  1  0.04593  0.04593  0.73974  1
 Tb  Tb4  1  0.95407  0.95407  0.26026  1
 Tb  Tb5  1  0.19619  0.19619  0.32549  1
 Tb  Tb6  1  0.80381  0.80381  0.67451  1
