CIF file written using JARVIS-Tools package.
data_Li2MnCoO4
_symmetry_space_group_name_H-M  'P-1'
_cell_length_a       2.83702
_cell_length_b       9.49229
_cell_length_c       4.95993
_cell_angle_alpha    85.0606
_cell_angle_beta     89.7301
_cell_angle_gamma    81.3568

_symmetry_Int_Tables_number  2
_chemical_formula_structural  Li2MnCoO4
_chemical_formula_sum  Li4Mn2Co2O8
_cell_volume  131.55790323426157
_cell_formula_units_Z  2
loop_
  _symmetry_equiv_pos_site_id
 _symmetry_equiv_pos_as_xyz
 1  'x, y, z'
loop_
 _atom_site_type_symbol
 _atom_site_label
 _atom_site_symmetry_multiplicity
 _atom_site_fract_x
 _atom_site_fract_y
 _atom_site_fract_z
 _atom_site_fract_occupancy
 Co  Co1  1  0.00010  -0.00024  -0.00004  1
 Co  Co2  1  0.24990  0.50024  0.75004  1
 Li  Li1  1  0.12500  0.75000  0.37500  1
 Li  Li2  1  0.62500  0.75000  0.87500  1
 Li  Li3  1  0.87419  0.25242  0.62963  1
 Li  Li4  1  0.37582  0.24759  0.12037  1
 Mn  Mn1  1  0.49992  0.00032  0.49978  1
 Mn  Mn2  1  0.75008  0.49968  0.25022  1
 O  O1  1  0.44641  0.11053  0.81371  1
 O  O2  1  0.80359  0.38947  0.93629  1
 O  O3  1  0.69636  0.61069  0.56325  1
 O  O4  1  0.55363  0.88931  0.18675  1
 O  O5  1  0.94368  0.11250  0.31206  1
 O  O6  1  0.30632  0.38751  0.43794  1
 O  O7  1  0.19368  0.61227  0.06310  1
 O  O8  1  0.05632  0.88773  0.68690  1
