CIF file written using JARVIS-Tools package.
data_Rb4TiO4
_symmetry_space_group_name_H-M  'P-1'
_cell_length_a       6.663
_cell_length_b       6.71436
_cell_length_c       9.91873
_cell_angle_alpha    71.8783
_cell_angle_beta     78.9261
_cell_angle_gamma    66.0676

_symmetry_Int_Tables_number  2
_chemical_formula_structural  Rb4TiO4
_chemical_formula_sum  Rb8Ti2O8
_cell_volume  384.3618682635823
_cell_formula_units_Z  2
loop_
  _symmetry_equiv_pos_site_id
 _symmetry_equiv_pos_as_xyz
 1  'x, y, z'
loop_
 _atom_site_type_symbol
 _atom_site_label
 _atom_site_symmetry_multiplicity
 _atom_site_fract_x
 _atom_site_fract_y
 _atom_site_fract_z
 _atom_site_fract_occupancy
 O  O1  1  0.87323  0.83444  0.89683  1
 O  O2  1  0.55071  0.67618  0.81227  1
 O  O3  1  0.43504  0.86713  0.34545  1
 O  O4  1  0.56496  0.13287  0.65455  1
 O  O5  1  0.44929  0.32382  0.18773  1
 O  O6  1  0.04903  0.29575  0.37096  1
 O  O7  1  0.12677  0.16556  0.10317  1
 O  O8  1  0.95097  0.70425  0.62904  1
 Rb  Rb1  1  0.24028  0.76457  0.03569  1
 Rb  Rb2  1  0.71906  0.49236  0.56152  1
 Rb  Rb3  1  0.74759  0.59207  0.15883  1
 Rb  Rb4  1  0.78890  0.02919  0.37407  1
 Rb  Rb5  1  0.21110  0.97081  0.62593  1
 Rb  Rb6  1  0.25241  0.40793  0.84117  1
 Rb  Rb7  1  0.28094  0.50764  0.43848  1
 Rb  Rb8  1  0.75972  0.23543  0.96431  1
 Ti  Ti1  1  0.26972  0.15750  0.24809  1
 Ti  Ti2  1  0.73028  0.84250  0.75191  1
