CIF file written using JARVIS-Tools package.
data_Li4Mn3O7
_symmetry_space_group_name_H-M  'P-1'
_cell_length_a       2.94394
_cell_length_b       5.94632
_cell_length_c       14.321
_cell_angle_alpha    83.2827
_cell_angle_beta     84.4669
_cell_angle_gamma    85.8243

_symmetry_Int_Tables_number  2
_chemical_formula_structural  Li4Mn3O7
_chemical_formula_sum  Li8Mn6O4
_cell_volume  247.33535022113608
_cell_formula_units_Z  2
loop_
  _symmetry_equiv_pos_site_id
 _symmetry_equiv_pos_as_xyz
 1  'x, y, z'
loop_
 _atom_site_type_symbol
 _atom_site_label
 _atom_site_symmetry_multiplicity
 _atom_site_fract_x
 _atom_site_fract_y
 _atom_site_fract_z
 _atom_site_fract_occupancy
 Li  Li1  1  0.90941  0.19943  0.62981  1
 Li  Li2  1  0.50000  0.50000  0.50000  1
 Li  Li3  1  0.09059  0.80057  0.37019  1
 Li  Li4  1  0.36030  0.92756  0.78232  1
 Li  Li5  1  0.79186  0.64362  0.92735  1
 Li  Li6  1  0.20814  0.35638  0.07265  1
 Li  Li7  1  0.63970  0.07244  0.21768  1
 Li  Li8  1  0.50000  0.00000  0.50000  1
 Mn  Mn1  1  0.95065  0.72575  0.63497  1
 Mn  Mn2  1  0.04935  0.27425  0.36503  1
 Mn  Mn3  1  0.61759  0.56473  0.21706  1
 Mn  Mn4  1  0.20702  0.85645  0.07277  1
 Mn  Mn5  1  0.79298  0.14355  0.92723  1
 Mn  Mn6  1  0.38241  0.43527  0.78294  1
 O  O1  1  0.75183  0.10629  0.06489  1
 O  O2  1  0.47365  0.49244  0.64680  1
 O  O3  1  0.00299  0.74566  0.50915  1
 O  O4  1  0.57688  0.06226  0.35839  1
 O  O5  1  0.84089  0.18538  0.78964  1
 O  O6  1  0.66439  0.60851  0.07914  1
 O  O7  1  0.08880  0.32762  0.22158  1
 O  O8  1  -0.00299  0.25434  0.49085  1
 O  O9  1  0.52635  0.50756  0.35320  1
 O  O10  1  0.91120  0.67238  0.77842  1
 O  O11  1  0.33561  0.39149  0.92086  1
 O  O12  1  0.24817  0.89371  0.93511  1
 O  O13  1  0.42312  0.93774  0.64161  1
 O  O14  1  0.15911  0.81462  0.21036  1
