CIF file written using JARVIS-Tools package.
data_DyFe4Si2
_symmetry_space_group_name_H-M  'P4_2/mnm'
_cell_length_a       7.08823
_cell_length_b       7.08823
_cell_length_c       3.70509
_cell_angle_alpha    90
_cell_angle_beta     90
_cell_angle_gamma    90

_symmetry_Int_Tables_number  136
_chemical_formula_structural  DyFe4Si2
_chemical_formula_sum  Dy2Fe8Si4
_cell_volume  186.15501857965756
_cell_formula_units_Z  2
loop_
  _symmetry_equiv_pos_site_id
 _symmetry_equiv_pos_as_xyz
 1  'x, y, z'
loop_
 _atom_site_type_symbol
 _atom_site_label
 _atom_site_symmetry_multiplicity
 _atom_site_fract_x
 _atom_site_fract_y
 _atom_site_fract_z
 _atom_site_fract_occupancy
 Dy  Dy1  1  0.50000  0.50000  0.50000  1
 Dy  Dy2  1  0.00000  0.00000  0.00000  1
 Fe  Fe1  1  0.64694  0.91733  0.50000  1
 Fe  Fe2  1  0.35306  0.08267  0.50000  1
 Fe  Fe3  1  0.14694  0.58267  0.00000  1
 Fe  Fe4  1  0.85306  0.41733  0.00000  1
 Fe  Fe5  1  0.91733  0.64694  0.50000  1
 Fe  Fe6  1  0.08267  0.35306  0.50000  1
 Fe  Fe7  1  0.58267  0.14694  0.00000  1
 Fe  Fe8  1  0.41733  0.85306  0.00000  1
 Si  Si1  1  0.78043  0.21957  0.50000  1
 Si  Si2  1  0.21957  0.78043  0.50000  1
 Si  Si3  1  0.28043  0.28043  0.00000  1
 Si  Si4  1  0.71957  0.71957  0.00000  1
