CIF file written using JARVIS-Tools package.
data_Li7Mn2Co3O12
_symmetry_space_group_name_H-M  'Pm'
_cell_length_a       2.84315
_cell_length_b       4.98202
_cell_length_c       13.9896
_cell_angle_alpha    90.9355
_cell_angle_beta     90
_cell_angle_gamma    90

_symmetry_Int_Tables_number  6
_chemical_formula_structural  Li7Mn2Co3O12
_chemical_formula_sum  Li7Mn2Co3O2
_cell_volume  198.13077131173125
_cell_formula_units_Z  1
loop_
  _symmetry_equiv_pos_site_id
 _symmetry_equiv_pos_as_xyz
 1  'x, y, z'
loop_
 _atom_site_type_symbol
 _atom_site_label
 _atom_site_symmetry_multiplicity
 _atom_site_fract_x
 _atom_site_fract_y
 _atom_site_fract_z
 _atom_site_fract_occupancy
 Co  Co1  1  0.00000  0.33101  0.33062  1
 Co  Co2  1  0.50000  0.83190  0.83220  1
 Co  Co3  1  0.50000  0.50033  0.49995  1
 Li  Li1  1  0.50000  0.16526  0.17242  1
 Li  Li2  1  0.50000  0.49454  0.00720  1
 Li  Li3  1  0.00000  0.66825  0.17490  1
 Li  Li4  1  0.50000  0.16605  0.66449  1
 Li  Li5  1  0.00000  0.00183  0.49049  1
 Li  Li6  1  0.50000  0.84193  0.32537  1
 Li  Li7  1  0.00000  0.33403  0.83674  1
 Mn  Mn1  1  0.00000  0.00687  0.00483  1
 Mn  Mn2  1  0.00000  0.66646  0.66548  1
 O  O1  1  0.00000  0.63473  0.42443  1
 O  O2  1  0.50000  0.48441  0.26072  1
 O  O3  1  0.00000  0.31028  0.07311  1
 O  O4  1  0.50000  0.84614  0.07252  1
 O  O5  1  0.00000  0.69383  0.90809  1
 O  O6  1  0.50000  0.19944  0.41515  1
 O  O7  1  0.00000  0.35753  0.58220  1
 O  O8  1  0.00000  0.01932  0.25788  1
 O  O9  1  0.00000  0.97444  0.75135  1
 O  O10  1  0.50000  0.81506  0.58741  1
 O  O11  1  0.50000  0.51998  0.74526  1
 O  O12  1  0.50000  0.13640  0.91718  1
