CIF file written using JARVIS-Tools package.
data_DyTlP2Se6
_symmetry_space_group_name_H-M  'P2_1'
_cell_length_a       7.55699
_cell_length_b       6.81756
_cell_length_c       10.2521
_cell_angle_alpha    89.1573
_cell_angle_beta     90
_cell_angle_gamma    90

_symmetry_Int_Tables_number  4
_chemical_formula_structural  DyTlP2Se6
_chemical_formula_sum  Dy2Tl2P4Se2
_cell_volume  528.1325690234514
_cell_formula_units_Z  2
loop_
  _symmetry_equiv_pos_site_id
 _symmetry_equiv_pos_as_xyz
 1  'x, y, z'
loop_
 _atom_site_type_symbol
 _atom_site_label
 _atom_site_symmetry_multiplicity
 _atom_site_fract_x
 _atom_site_fract_y
 _atom_site_fract_z
 _atom_site_fract_occupancy
 Dy  Dy1  1  0.49993  0.28592  0.50148  1
 Dy  Dy2  1  -0.00007  0.71408  0.49852  1
 P  P1  1  0.00700  0.18777  0.67733  1
 P  P2  1  0.50700  0.81223  0.32267  1
 P  P3  1  0.22891  0.31384  0.79924  1
 P  P4  1  0.72891  0.68616  0.20076  1
 Se  Se1  1  0.40921  0.09360  0.24073  1
 Se  Se2  1  0.31168  0.57531  0.67266  1
 Se  Se3  1  0.44244  0.09902  0.76856  1
 Se  Se4  1  0.94244  0.90098  0.23144  1
 Se  Se5  1  0.90921  0.90640  0.75927  1
 Se  Se6  1  0.63524  0.87275  0.51786  1
 Se  Se7  1  0.80460  0.42953  0.67163  1
 Se  Se8  1  0.63381  0.64798  0.00341  1
 Se  Se9  1  0.13524  0.12725  0.48214  1
 Se  Se10  1  0.30460  0.57047  0.32837  1
 Se  Se11  1  0.13381  0.35202  0.99659  1
 Se  Se12  1  0.81168  0.42469  0.32734  1
 Tl  Tl1  1  0.72020  0.18188  0.00982  1
 Tl  Tl2  1  0.22020  0.81812  0.99018  1
