CIF file written using JARVIS-Tools package.
data_Na3Li3Fe2P2C2O14
_symmetry_space_group_name_H-M  'P1'
_cell_length_a       4.98095
_cell_length_b       6.62525
_cell_length_c       8.7053
_cell_angle_alpha    87.9638
_cell_angle_beta     86.9726
_cell_angle_gamma    89.0604

_symmetry_Int_Tables_number  1
_chemical_formula_structural  Na3Li3Fe2P2C2O14
_chemical_formula_sum  Na3Li3Fe2P2C2O4
_cell_volume  286.6625454237603
_cell_formula_units_Z  1
loop_
  _symmetry_equiv_pos_site_id
 _symmetry_equiv_pos_as_xyz
 1  'x, y, z'
loop_
 _atom_site_type_symbol
 _atom_site_label
 _atom_site_symmetry_multiplicity
 _atom_site_fract_x
 _atom_site_fract_y
 _atom_site_fract_z
 _atom_site_fract_occupancy
 C  C1  1  0.27507  0.23623  0.95625  1
 C  C2  1  0.69917  0.75987  0.05080  1
 Fe  Fe1  1  0.22877  0.24875  0.64013  1
 Fe  Fe2  1  0.78935  0.76315  0.35254  1
 Li  Li1  1  0.21521  0.75472  0.89190  1
 Li  Li2  1  0.26370  0.02162  0.27221  1
 Li  Li3  1  0.76523  0.22479  0.10498  1
 Na  Na1  1  0.73953  0.99163  0.74395  1
 Na  Na2  1  0.74298  0.49254  0.75398  1
 Na  Na3  1  0.26112  0.50749  0.24539  1
 O  O1  1  0.20171  0.55966  0.68476  1
 O  O2  1  0.19509  0.92867  0.69056  1
 O  O3  1  0.95631  0.75028  0.06610  1
 O  O4  1  0.02023  0.24349  0.93383  1
 O  O5  1  0.59636  0.73844  0.91913  1
 O  O6  1  0.44637  0.23518  0.83712  1
 O  O7  1  0.84291  0.25513  0.56664  1
 O  O8  1  0.53828  0.79175  0.17183  1
 O  O9  1  0.41797  0.21931  0.42593  1
 O  O10  1  0.78438  0.44868  0.30733  1
 O  O11  1  0.85683  0.08044  0.30622  1
 O  O12  1  0.60311  0.75165  0.56600  1
 O  O13  1  0.17372  0.76257  0.42644  1
 O  O14  1  0.36769  0.23097  0.09293  1
 P  P1  1  0.29029  0.75103  0.58775  1
 P  P2  1  0.72862  0.25198  0.40527  1
