CIF file written using JARVIS-Tools package.
data_LiV3O6
_symmetry_space_group_name_H-M  'R3'
_cell_length_a       4.9516
_cell_length_b       8.57386
_cell_length_c       5.39203
_cell_angle_alpha    105.358
_cell_angle_beta     117.341
_cell_angle_gamma    89.9973

_symmetry_Int_Tables_number  146
_chemical_formula_structural  LiV3O6
_chemical_formula_sum  Li2V6O2
_cell_volume  194.0959409770969
_cell_formula_units_Z  2
loop_
  _symmetry_equiv_pos_site_id
 _symmetry_equiv_pos_as_xyz
 1  'x, y, z'
loop_
 _atom_site_type_symbol
 _atom_site_label
 _atom_site_symmetry_multiplicity
 _atom_site_fract_x
 _atom_site_fract_y
 _atom_site_fract_z
 _atom_site_fract_occupancy
 Li  Li1  1  0.42901  0.14298  0.85801  1
 Li  Li2  1  0.92902  0.64297  0.85801  1
 O  O1  1  0.45143  0.36754  0.21646  1
 O  O2  1  0.97763  0.10804  0.70150  1
 O  O3  1  0.43950  0.04199  0.21642  1
 O  O4  1  0.93950  0.54199  0.21642  1
 O  O5  1  0.95143  0.86754  0.21645  1
 O  O6  1  0.43384  0.69877  0.21647  1
 O  O7  1  0.52406  0.30793  0.70151  1
 O  O8  1  0.02406  0.80793  0.70151  1
 O  O9  1  0.05069  0.43480  0.70145  1
 O  O10  1  0.55069  0.93480  0.70145  1
 O  O11  1  0.93383  0.19877  0.21647  1
 O  O12  1  0.47763  0.60804  0.70150  1
 V  V1  1  0.74926  0.24979  0.49847  1
 V  V2  1  0.49795  0.49932  -0.00422  1
 V  V3  1  0.19782  0.39924  0.39554  1
 V  V4  1  0.24926  0.74979  0.49847  1
 V  V5  1  0.99795  -0.00068  -0.00422  1
 V  V6  1  0.69782  0.89924  0.39554  1
