CIF file written using JARVIS-Tools package.
data_SrO6
_symmetry_space_group_name_H-M  'C2/c'
_cell_length_a       5.74197
_cell_length_b       5.74198
_cell_length_c       5.89675
_cell_angle_alpha    91.4951
_cell_angle_beta     91.4951
_cell_angle_gamma    95.6426

_symmetry_Int_Tables_number  15
_chemical_formula_structural  SrO6
_chemical_formula_sum  Sr2O2
_cell_volume  193.32913600516153
_cell_formula_units_Z  2
loop_
  _symmetry_equiv_pos_site_id
 _symmetry_equiv_pos_as_xyz
 1  'x, y, z'
loop_
 _atom_site_type_symbol
 _atom_site_label
 _atom_site_symmetry_multiplicity
 _atom_site_fract_x
 _atom_site_fract_y
 _atom_site_fract_z
 _atom_site_fract_occupancy
 O  O1  1  0.88063  0.79043  0.44834  1
 O  O2  1  0.20957  0.11937  0.05166  1
 O  O3  1  0.11937  0.20957  0.55166  1
 O  O4  1  0.79043  0.88063  0.94834  1
 O  O5  1  0.70145  0.63481  0.42111  1
 O  O6  1  0.36519  0.29855  0.07889  1
 O  O7  1  0.29855  0.36519  0.57889  1
 O  O8  1  0.63481  0.70145  0.92111  1
 O  O9  1  0.92948  0.44204  0.92019  1
 O  O10  1  0.55796  0.07052  0.57981  1
 O  O11  1  0.07052  0.55796  0.07981  1
 O  O12  1  0.44204  0.92948  0.42019  1
 Sr  Sr1  1  0.21460  0.78540  0.75000  1
 Sr  Sr2  1  0.78540  0.21460  0.25000  1
