CIF file written using JARVIS-Tools package.
data_Li7Mn2Co3O12
_symmetry_space_group_name_H-M  'Cm'
_cell_length_a       2.83486
_cell_length_b       4.91966
_cell_length_c       14.4383
_cell_angle_alpha    80.5492
_cell_angle_beta     84.3334
_cell_angle_gamma    90.0138

_symmetry_Int_Tables_number  8
_chemical_formula_structural  Li7Mn2Co3O12
_chemical_formula_sum  Li7Mn2Co3O2
_cell_volume  197.63304272766382
_cell_formula_units_Z  1
loop_
  _symmetry_equiv_pos_site_id
 _symmetry_equiv_pos_as_xyz
 1  'x, y, z'
loop_
 _atom_site_type_symbol
 _atom_site_label
 _atom_site_symmetry_multiplicity
 _atom_site_fract_x
 _atom_site_fract_y
 _atom_site_fract_z
 _atom_site_fract_occupancy
 Co  Co1  1  0.66826  0.33443  0.66378  1
 Co  Co2  1  0.83197  0.16904  0.33533  1
 Co  Co3  1  0.33208  0.66941  0.33511  1
 Li  Li1  1  0.16833  0.83352  0.66361  1
 Li  Li2  1  0.91209  0.57932  0.17592  1
 Li  Li3  1  0.09103  0.41853  0.81734  1
 Li  Li4  1  0.59590  0.90915  0.80753  1
 Li  Li5  1  0.41211  0.07940  0.17588  1
 Li  Li6  1  0.74323  0.76273  0.51470  1
 Li  Li7  1  0.24672  0.25284  0.50768  1
 Mn  Mn1  1  -0.00046  -0.00415  0.00116  1
 Mn  Mn2  1  0.49960  0.49649  0.00103  1
 O  O1  1  0.96092  0.29263  0.07785  1
 O  O2  1  0.29699  0.96809  0.40481  1
 O  O3  1  0.62859  0.59916  0.74283  1
 O  O4  1  0.36924  0.37123  0.26128  1
 O  O5  1  0.70704  0.06975  0.58646  1
 O  O6  1  0.20539  0.52625  0.59001  1
 O  O7  1  0.86933  0.87208  0.26110  1
 O  O8  1  0.53619  0.19771  0.92837  1
 O  O9  1  0.79754  0.47003  0.40374  1
 O  O10  1  0.13033  0.14113  0.73913  1
 O  O11  1  0.03669  0.69915  0.92739  1
 O  O12  1  0.46086  0.79210  0.07796  1
