CIF file written using JARVIS-Tools package.
data_La3Bi4Au3
_symmetry_space_group_name_H-M  'I-43d'
_cell_length_a       9.03002
_cell_length_b       9.03002
_cell_length_c       9.03002
_cell_angle_alpha    109.471
_cell_angle_beta     109.471
_cell_angle_gamma    109.471

_symmetry_Int_Tables_number  220
_chemical_formula_structural  La3Bi4Au3
_chemical_formula_sum  La6Bi8Au6
_cell_volume  566.8187228198683
_cell_formula_units_Z  2
loop_
  _symmetry_equiv_pos_site_id
 _symmetry_equiv_pos_as_xyz
 1  'x, y, z'
loop_
 _atom_site_type_symbol
 _atom_site_label
 _atom_site_symmetry_multiplicity
 _atom_site_fract_x
 _atom_site_fract_y
 _atom_site_fract_z
 _atom_site_fract_occupancy
 Au  Au1  1  0.87500  0.12500  0.75000  1
 Au  Au2  1  0.75000  0.87500  0.12500  1
 Au  Au3  1  0.25000  0.62500  0.37500  1
 Au  Au4  1  0.12500  0.75000  0.87500  1
 Au  Au5  1  0.37500  0.25000  0.62500  1
 Au  Au6  1  0.62500  0.37500  0.25000  1
 Bi  Bi1  1  0.67827  0.50000  0.00000  1
 Bi  Bi2  1  0.50000  0.00000  0.67827  1
 Bi  Bi3  1  0.00000  0.67827  0.50000  1
 Bi  Bi4  1  0.82173  0.82173  0.82173  1
 Bi  Bi5  1  0.50000  0.00000  0.17827  1
 Bi  Bi6  1  0.00000  0.17827  0.50000  1
 Bi  Bi7  1  0.32173  0.32173  0.32173  1
 Bi  Bi8  1  0.17827  0.50000  0.00000  1
 La  La1  1  0.37500  0.62500  0.75000  1
 La  La2  1  0.12500  0.87500  0.25000  1
 La  La3  1  0.75000  0.37500  0.62500  1
 La  La4  1  0.25000  0.12500  0.87500  1
 La  La5  1  0.62500  0.75000  0.37500  1
 La  La6  1  0.87500  0.25000  0.12500  1
