CIF file written using JARVIS-Tools package.
data_Al5O8
_symmetry_space_group_name_H-M  'P6_3mc'
_cell_length_a       5.60265
_cell_length_b       5.60266
_cell_length_c       8.89506
_cell_angle_alpha    90
_cell_angle_beta     90
_cell_angle_gamma    120

_symmetry_Int_Tables_number  186
_chemical_formula_structural  Al5O8
_chemical_formula_sum  Al0O6
_cell_volume  241.80568966728373
_cell_formula_units_Z  2
loop_
  _symmetry_equiv_pos_site_id
 _symmetry_equiv_pos_as_xyz
 1  'x, y, z'
loop_
 _atom_site_type_symbol
 _atom_site_label
 _atom_site_symmetry_multiplicity
 _atom_site_fract_x
 _atom_site_fract_y
 _atom_site_fract_z
 _atom_site_fract_occupancy
 Al  Al1  1  0.83759  0.16241  0.86855  1
 Al  Al2  1  0.16241  0.32482  0.36855  1
 Al  Al3  1  0.32482  0.16241  0.86855  1
 Al  Al4  1  0.16241  0.83759  0.36855  1
 Al  Al5  1  0.66667  0.33333  0.55469  1
 Al  Al6  1  0.83759  0.67518  0.86855  1
 Al  Al7  1  0.33333  0.66667  0.64944  1
 Al  Al8  1  0.66667  0.33333  0.14944  1
 Al  Al9  1  0.33333  0.66667  0.05469  1
 Al  Al10  1  0.67518  0.83759  0.36855  1
 O  O1  1  0.51290  0.48710  0.99960  1
 O  O2  1  0.00000  0.00000  0.47335  1
 O  O3  1  0.00000  0.00000  0.97335  1
 O  O4  1  0.66667  0.33333  0.75868  1
 O  O5  1  0.48710  0.97421  0.49960  1
 O  O6  1  0.02579  0.51290  0.49960  1
 O  O7  1  0.48710  0.51290  0.49960  1
 O  O8  1  0.82998  0.17002  0.25915  1
 O  O9  1  0.17002  0.82998  0.75915  1
 O  O10  1  0.17002  0.34003  0.75915  1
 O  O11  1  0.34003  0.17002  0.25915  1
 O  O12  1  0.51290  0.02579  0.99960  1
 O  O13  1  0.82998  0.65997  0.25915  1
 O  O14  1  0.65997  0.82998  0.75915  1
 O  O15  1  0.97421  0.48710  0.99960  1
 O  O16  1  0.33333  0.66667  0.25868  1
