CIF file written using JARVIS-Tools package.
data_Co2O3F
_symmetry_space_group_name_H-M  'Imma'
_cell_length_a       5.2436
_cell_length_b       5.24367
_cell_length_c       5.24368
_cell_angle_alpha    67.3113
_cell_angle_beta     105.829
_cell_angle_gamma    70.0303

_symmetry_Int_Tables_number  74
_chemical_formula_structural  Co2O3F
_chemical_formula_sum  Co4O6F2
_cell_volume  110.58735868407541
_cell_formula_units_Z  2
loop_
  _symmetry_equiv_pos_site_id
 _symmetry_equiv_pos_as_xyz
 1  'x, y, z'
loop_
 _atom_site_type_symbol
 _atom_site_label
 _atom_site_symmetry_multiplicity
 _atom_site_fract_x
 _atom_site_fract_y
 _atom_site_fract_z
 _atom_site_fract_occupancy
 Co  Co1  1  0.47274  0.25000  0.22274  1
 Co  Co2  1  0.52726  0.75000  0.77726  1
 Co  Co3  1  -0.00000  0.50000  0.50000  1
 Co  Co4  1  -0.00000  0.00000  0.00000  1
 F  F1  1  0.78140  0.24999  0.53142  1
 F  F2  1  0.21860  0.75001  0.46858  1
 O  O1  1  0.81594  0.75001  0.06595  1
 O  O2  1  0.18406  0.24999  0.93405  1
 O  O3  1  0.30438  0.19562  0.49999  1
 O  O4  1  0.30438  0.69561  0.99999  1
 O  O5  1  0.69562  0.80438  0.50001  1
 O  O6  1  0.69562  0.30439  0.00001  1
