CIF file written using JARVIS-Tools package.
data_Li4V3Cr3Fe2O16
_symmetry_space_group_name_H-M  'Cm'
_cell_length_a       5.72944
_cell_length_b       5.72911
_cell_length_c       9.28463
_cell_angle_alpha    90.1755
_cell_angle_beta     89.818
_cell_angle_gamma    119.821

_symmetry_Int_Tables_number  8
_chemical_formula_structural  Li4V3Cr3Fe2O16
_chemical_formula_sum  Li4V3Cr3Fe2O6
_cell_volume  264.40698804351666
_cell_formula_units_Z  1
loop_
  _symmetry_equiv_pos_site_id
 _symmetry_equiv_pos_as_xyz
 1  'x, y, z'
loop_
 _atom_site_type_symbol
 _atom_site_label
 _atom_site_symmetry_multiplicity
 _atom_site_fract_x
 _atom_site_fract_y
 _atom_site_fract_z
 _atom_site_fract_occupancy
 Cr  Cr1  1  0.82866  0.17130  0.28912  1
 Cr  Cr2  1  0.65699  0.83165  0.78799  1
 Cr  Cr3  1  0.16843  0.34310  0.78800  1
 Fe  Fe1  1  0.66710  0.33294  0.01141  1
 Fe  Fe2  1  0.33390  0.66612  0.51457  1
 Li  Li1  1  0.33185  0.66816  0.10868  1
 Li  Li2  1  0.66505  0.33505  0.61297  1
 Li  Li3  1  0.00203  0.99780  0.50456  1
 Li  Li4  1  -0.00185  0.00185  0.00424  1
 O  O1  1  0.33011  0.66995  0.90398  1
 O  O2  1  0.66165  0.82307  0.39797  1
 O  O3  1  0.47676  0.52333  0.65764  1
 O  O4  1  0.00087  0.99925  0.69268  1
 O  O5  1  0.00164  0.99837  0.19308  1
 O  O6  1  0.17687  0.33831  0.39798  1
 O  O7  1  0.52032  0.47971  0.15128  1
 O  O8  1  0.04307  0.52545  0.65344  1
 O  O9  1  0.83542  0.66176  0.89630  1
 O  O10  1  0.95475  0.47866  0.15540  1
 O  O11  1  0.52135  0.04526  0.15542  1
 O  O12  1  0.66617  0.33377  0.40752  1
 O  O13  1  0.47463  0.95699  0.65342  1
 O  O14  1  0.82967  0.17038  0.89932  1
 O  O15  1  0.17120  0.82877  0.39412  1
 O  O16  1  0.33831  0.16465  0.89630  1
 V  V1  1  0.34825  0.17588  0.28808  1
 V  V2  1  0.17302  0.82709  0.78865  1
 V  V3  1  0.82410  0.65170  0.28805  1
