CIF file written using JARVIS-Tools package.
data_FeOF
_symmetry_space_group_name_H-M  'Pnma'
_cell_length_a       2.86708
_cell_length_b       4.34922
_cell_length_c       9.48909
_cell_angle_alpha    90
_cell_angle_beta     90
_cell_angle_gamma    90

_symmetry_Int_Tables_number  62
_chemical_formula_structural  FeOF
_chemical_formula_sum  Fe4O4F4
_cell_volume  118.325096626042
_cell_formula_units_Z  4
loop_
  _symmetry_equiv_pos_site_id
 _symmetry_equiv_pos_as_xyz
 1  'x, y, z'
loop_
 _atom_site_type_symbol
 _atom_site_label
 _atom_site_symmetry_multiplicity
 _atom_site_fract_x
 _atom_site_fract_y
 _atom_site_fract_z
 _atom_site_fract_occupancy
 F  F1  1  0.75000  0.77199  0.03913  1
 F  F2  1  0.25000  0.27199  0.46087  1
 F  F3  1  0.75000  0.72801  0.53913  1
 F  F4  1  0.25000  0.22801  0.96087  1
 Fe  Fe1  1  0.75000  0.49236  0.35033  1
 Fe  Fe2  1  0.75000  0.00764  0.85033  1
 Fe  Fe3  1  0.25000  0.99236  0.14967  1
 Fe  Fe4  1  0.25000  0.50764  0.64967  1
 O  O1  1  0.75000  0.21205  0.21228  1
 O  O2  1  0.25000  0.71206  0.28772  1
 O  O3  1  0.75000  0.28795  0.71228  1
 O  O4  1  0.25000  0.78794  0.78772  1
