CIF file written using JARVIS-Tools package.
data_H
_symmetry_space_group_name_H-M  'Pnma'
_cell_length_a       4.36601
_cell_length_b       4.66835
_cell_length_c       9.43786
_cell_angle_alpha    90
_cell_angle_beta     90
_cell_angle_gamma    90

_symmetry_Int_Tables_number  62
_chemical_formula_structural  H
_chemical_formula_sum  H6
_cell_volume  192.36302574528216
_cell_formula_units_Z  16
loop_
  _symmetry_equiv_pos_site_id
 _symmetry_equiv_pos_as_xyz
 1  'x, y, z'
loop_
 _atom_site_type_symbol
 _atom_site_label
 _atom_site_symmetry_multiplicity
 _atom_site_fract_x
 _atom_site_fract_y
 _atom_site_fract_z
 _atom_site_fract_occupancy
 H  H1  1  0.44310  0.42757  0.75000  1
 H  H2  1  0.05690  -0.07243  0.75000  1
 H  H3  1  0.55690  0.57243  0.25000  1
 H  H4  1  0.94310  0.07243  0.25000  1
 H  H5  1  0.55757  0.54606  0.75000  1
 H  H6  1  -0.05757  0.04606  0.75000  1
 H  H7  1  0.44243  0.45394  0.25000  1
 H  H8  1  0.05757  0.95394  0.25000  1
 H  H9  1  0.05990  0.44304  -0.00070  1
 H  H10  1  0.44010  0.94304  0.50070  1
 H  H11  1  0.94010  0.55696  0.49930  1
 H  H12  1  0.55990  0.05696  0.00070  1
 H  H13  1  0.94010  0.55696  0.00070  1
 H  H14  1  0.55990  0.05696  0.49930  1
 H  H15  1  0.05990  0.44304  0.50070  1
 H  H16  1  0.44010  0.94304  -0.00070  1
