CIF file written using JARVIS-Tools package.
data_LiCuHSO5
_symmetry_space_group_name_H-M  'P2_1/m'
_cell_length_a       5.67593
_cell_length_b       4.54385
_cell_length_c       7.58903
_cell_angle_alpha    92.4357
_cell_angle_beta     90
_cell_angle_gamma    90

_symmetry_Int_Tables_number  11
_chemical_formula_structural  LiCuHSO5
_chemical_formula_sum  Li2Cu2H2S2O0
_cell_volume  195.54879746567545
_cell_formula_units_Z  2
loop_
  _symmetry_equiv_pos_site_id
 _symmetry_equiv_pos_as_xyz
 1  'x, y, z'
loop_
 _atom_site_type_symbol
 _atom_site_label
 _atom_site_symmetry_multiplicity
 _atom_site_fract_x
 _atom_site_fract_y
 _atom_site_fract_z
 _atom_site_fract_occupancy
 Cu  Cu1  1  0.00000  0.00000  0.00000  1
 Cu  Cu2  1  0.50000  0.00000  0.00000  1
 H  H1  1  0.75000  0.32848  0.82795  1
 H  H2  1  0.25000  0.67152  0.17205  1
 Li  Li1  1  0.75000  0.81319  0.65143  1
 Li  Li2  1  0.25000  0.18681  0.34857  1
 O  O1  1  0.25000  0.88385  0.15359  1
 O  O2  1  0.75000  0.11615  0.84641  1
 O  O3  1  0.03460  0.61375  0.74198  1
 O  O4  1  0.25000  0.27687  0.91801  1
 O  O5  1  0.25000  0.20551  0.59572  1
 O  O6  1  0.96540  0.38625  0.25802  1
 O  O7  1  0.53460  0.38625  0.25802  1
 O  O8  1  0.46540  0.61375  0.74198  1
 O  O9  1  0.75000  0.79449  0.40428  1
 O  O10  1  0.75000  0.72313  0.08199  1
 S  S1  1  0.75000  0.56747  0.26260  1
 S  S2  1  0.25000  0.43253  0.73740  1
