CIF file written using JARVIS-Tools package.
data_NdSb12Ru4
_symmetry_space_group_name_H-M  'Im-3'
_cell_length_a       8.14857
_cell_length_b       8.14857
_cell_length_c       8.14857
_cell_angle_alpha    109.471
_cell_angle_beta     109.471
_cell_angle_gamma    109.471

_symmetry_Int_Tables_number  204
_chemical_formula_structural  NdSb12Ru4
_chemical_formula_sum  NdSb2Ru4
_cell_volume  416.5077664191763
_cell_formula_units_Z  1
loop_
  _symmetry_equiv_pos_site_id
 _symmetry_equiv_pos_as_xyz
 1  'x, y, z'
loop_
 _atom_site_type_symbol
 _atom_site_label
 _atom_site_symmetry_multiplicity
 _atom_site_fract_x
 _atom_site_fract_y
 _atom_site_fract_z
 _atom_site_fract_occupancy
 Nd  Nd1  1  0.00000  0.00000  0.00000  1
 Ru  Ru1  1  0.00000  0.00000  0.50000  1
 Ru  Ru2  1  -0.00000  0.50000  -0.00000  1
 Ru  Ru3  1  0.50000  0.00000  -0.00000  1
 Ru  Ru4  1  0.50000  0.50000  0.50000  1
 Sb  Sb1  1  0.50345  0.84229  0.66116  1
 Sb  Sb2  1  0.49655  0.15771  0.33884  1
 Sb  Sb3  1  0.18113  0.84229  0.33884  1
 Sb  Sb4  1  0.15771  0.66116  0.81887  1
 Sb  Sb5  1  0.66116  0.50345  0.84229  1
 Sb  Sb6  1  0.66116  0.81887  0.15771  1
 Sb  Sb7  1  0.33884  0.18113  0.84229  1
 Sb  Sb8  1  0.81887  0.15771  0.66116  1
 Sb  Sb9  1  0.84229  0.66116  0.50345  1
 Sb  Sb10  1  0.15771  0.33884  0.49655  1
 Sb  Sb11  1  0.84229  0.33884  0.18113  1
 Sb  Sb12  1  0.33884  0.49655  0.15771  1
