CIF file written using JARVIS-Tools package.
data_Pr2Mn3Cu9As7
_symmetry_space_group_name_H-M  'P-6'
_cell_length_a       9.91262
_cell_length_b       9.91262
_cell_length_c       4.00923
_cell_angle_alpha    90
_cell_angle_beta     90
_cell_angle_gamma    120

_symmetry_Int_Tables_number  174
_chemical_formula_structural  Pr2Mn3Cu9As7
_chemical_formula_sum  Pr2Mn3Cu9As7
_cell_volume  341.1681417552959
_cell_formula_units_Z  1
loop_
  _symmetry_equiv_pos_site_id
 _symmetry_equiv_pos_as_xyz
 1  'x, y, z'
loop_
 _atom_site_type_symbol
 _atom_site_label
 _atom_site_symmetry_multiplicity
 _atom_site_fract_x
 _atom_site_fract_y
 _atom_site_fract_z
 _atom_site_fract_occupancy
 As  As1  1  0.33333  0.66667  0.00000  1
 As  As2  1  0.74687  0.96429  0.50000  1
 As  As3  1  0.45611  0.07816  0.00000  1
 As  As4  1  0.92184  0.37794  0.00000  1
 As  As5  1  0.62206  0.54389  0.00000  1
 As  As6  1  0.03571  0.78259  0.50000  1
 As  As7  1  0.21741  0.25313  0.50000  1
 Cu  Cu1  1  0.61494  0.79004  0.00000  1
 Cu  Cu2  1  0.38202  0.28662  0.00000  1
 Cu  Cu3  1  0.90460  0.61798  0.00000  1
 Cu  Cu4  1  0.71338  0.09540  0.00000  1
 Cu  Cu5  1  0.17510  0.38506  0.00000  1
 Cu  Cu6  1  0.75325  0.71103  0.50000  1
 Cu  Cu7  1  0.95778  0.24675  0.50000  1
 Cu  Cu8  1  0.28897  0.04222  0.50000  1
 Cu  Cu9  1  0.20996  0.82490  0.00000  1
 Mn  Mn1  1  0.45875  0.88585  0.50000  1
 Mn  Mn2  1  0.11415  0.57290  0.50000  1
 Mn  Mn3  1  0.42710  0.54125  0.50000  1
 Pr  Pr1  1  0.66667  0.33333  0.50000  1
 Pr  Pr2  1  0.00000  0.00000  0.00000  1
