CIF file written using JARVIS-Tools package.
data_U2Si5Rh3
_symmetry_space_group_name_H-M  'Ibam'
_cell_length_a       8.1204
_cell_length_b       8.1204
_cell_length_c       8.1204
_cell_angle_alpha    137.687
_cell_angle_beta     104.806
_cell_angle_gamma    90.2847

_symmetry_Int_Tables_number  72
_chemical_formula_structural  U2Si5Rh3
_chemical_formula_sum  U4Si0Rh6
_cell_volume  332.6620640819092
_cell_formula_units_Z  2
loop_
  _symmetry_equiv_pos_site_id
 _symmetry_equiv_pos_as_xyz
 1  'x, y, z'
loop_
 _atom_site_type_symbol
 _atom_site_label
 _atom_site_symmetry_multiplicity
 _atom_site_fract_x
 _atom_site_fract_y
 _atom_site_fract_z
 _atom_site_fract_occupancy
 Rh  Rh1  1  -0.00000  0.25000  0.25000  1
 Rh  Rh2  1  0.52887  0.14002  0.38885  1
 Rh  Rh3  1  0.47113  0.85998  0.61115  1
 Rh  Rh4  1  0.24883  0.35998  0.88885  1
 Rh  Rh5  1  -0.00000  0.75000  0.75000  1
 Rh  Rh6  1  0.75117  0.64002  0.11115  1
 Si  Si1  1  0.73949  0.89433  0.84516  1
 Si  Si2  1  0.50000  0.25000  0.75000  1
 Si  Si3  1  0.50000  0.75000  0.25000  1
 Si  Si4  1  0.22325  0.97325  0.75000  1
 Si  Si5  1  0.77675  0.02675  0.25000  1
 Si  Si6  1  0.26051  0.10567  0.15484  1
 Si  Si7  1  0.95084  0.60567  0.34516  1
 Si  Si8  1  0.77675  0.52675  0.75000  1
 Si  Si9  1  0.22325  0.47325  0.25000  1
 Si  Si10  1  0.04916  0.39433  0.65484  1
 U  U1  1  0.13571  0.86661  0.26910  1
 U  U2  1  0.59750  0.36661  0.23090  1
 U  U3  1  0.86429  0.13339  0.73090  1
 U  U4  1  0.40250  0.63339  0.76910  1
