CIF file written using JARVIS-Tools package.
data_LiH2N
_symmetry_space_group_name_H-M  'Pnma'
_cell_length_a       3.96715
_cell_length_b       4.62916
_cell_length_c       5.43016
_cell_angle_alpha    90
_cell_angle_beta     90
_cell_angle_gamma    90

_symmetry_Int_Tables_number  62
_chemical_formula_structural  LiH2N
_chemical_formula_sum  Li4H8N4
_cell_volume  99.7227329748384
_cell_formula_units_Z  4
loop_
  _symmetry_equiv_pos_site_id
 _symmetry_equiv_pos_as_xyz
 1  'x, y, z'
loop_
 _atom_site_type_symbol
 _atom_site_label
 _atom_site_symmetry_multiplicity
 _atom_site_fract_x
 _atom_site_fract_y
 _atom_site_fract_z
 _atom_site_fract_occupancy
 H  H1  1  0.25000  0.24300  0.82223  1
 H  H2  1  0.25000  0.74300  0.67777  1
 H  H3  1  0.75000  0.75700  0.17777  1
 H  H4  1  0.75000  0.25700  0.32223  1
 H  H5  1  0.00000  0.00000  0.00000  1
 H  H6  1  0.50000  0.50000  0.50000  1
 H  H7  1  0.50000  0.00000  0.00000  1
 H  H8  1  0.00000  0.50000  0.50000  1
 Li  Li1  1  0.25000  0.62855  0.12048  1
 Li  Li2  1  0.25000  0.12855  0.37952  1
 Li  Li3  1  0.75000  0.37145  0.87952  1
 Li  Li4  1  0.75000  0.87145  0.62048  1
 N  N1  1  0.25000  0.19772  0.00838  1
 N  N2  1  0.25000  0.69772  0.49162  1
 N  N3  1  0.75000  0.80228  -0.00838  1
 N  N4  1  0.75000  0.30228  0.50838  1
