CIF file written using JARVIS-Tools package.
data_B2OsW2
_symmetry_space_group_name_H-M  'Pnnm'
_cell_length_a       3.09111
_cell_length_b       7.63147
_cell_length_c       9.68166
_cell_angle_alpha    90
_cell_angle_beta     90
_cell_angle_gamma    90

_symmetry_Int_Tables_number  58
_chemical_formula_structural  B2OsW2
_chemical_formula_sum  B8Os4W8
_cell_volume  228.387332326124
_cell_formula_units_Z  4
loop_
  _symmetry_equiv_pos_site_id
 _symmetry_equiv_pos_as_xyz
 1  'x, y, z'
loop_
 _atom_site_type_symbol
 _atom_site_label
 _atom_site_symmetry_multiplicity
 _atom_site_fract_x
 _atom_site_fract_y
 _atom_site_fract_z
 _atom_site_fract_occupancy
 B  B1  1  0.50000  0.11334  0.46025  1
 B  B2  1  0.50000  0.88666  0.53975  1
 B  B3  1  0.00000  0.38666  0.96025  1
 B  B4  1  0.00000  0.61334  0.03975  1
 B  B5  1  0.50000  0.12279  0.26919  1
 B  B6  1  0.50000  0.87721  0.73081  1
 B  B7  1  0.00000  0.37721  0.76919  1
 B  B8  1  0.00000  0.62279  0.23081  1
 Os  Os1  1  0.50000  0.61649  0.39228  1
 Os  Os2  1  0.50000  0.38351  0.60772  1
 Os  Os3  1  0.00000  0.88351  0.89228  1
 Os  Os4  1  0.00000  0.11649  0.10772  1
 W  W1  1  0.50000  0.80633  0.13014  1
 W  W2  1  0.50000  0.19367  0.86986  1
 W  W3  1  0.00000  0.69367  0.63014  1
 W  W4  1  0.00000  0.30633  0.36986  1
 W  W5  1  0.50000  0.57604  0.86028  1
 W  W6  1  0.50000  0.42396  0.13972  1
 W  W7  1  0.00000  0.92396  0.36028  1
 W  W8  1  0.00000  0.07604  0.63972  1
