CIF file written using JARVIS-Tools package.
data_TiNb3Se6
_symmetry_space_group_name_H-M  'P6_322'
_cell_length_a       6.07166
_cell_length_b       6.07166
_cell_length_c       13.0364
_cell_angle_alpha    90
_cell_angle_beta     90
_cell_angle_gamma    120

_symmetry_Int_Tables_number  182
_chemical_formula_structural  TiNb3Se6
_chemical_formula_sum  Ti2Nb6Se2
_cell_volume  416.2010788940987
_cell_formula_units_Z  2
loop_
  _symmetry_equiv_pos_site_id
 _symmetry_equiv_pos_as_xyz
 1  'x, y, z'
loop_
 _atom_site_type_symbol
 _atom_site_label
 _atom_site_symmetry_multiplicity
 _atom_site_fract_x
 _atom_site_fract_y
 _atom_site_fract_z
 _atom_site_fract_occupancy
 Nb  Nb1  1  0.00000  0.00000  0.50000  1
 Nb  Nb2  1  0.00000  0.00000  0.00000  1
 Nb  Nb3  1  0.33333  0.66667  0.00024  1
 Nb  Nb4  1  0.66667  0.33333  -0.00024  1
 Nb  Nb5  1  0.66667  0.33333  0.50024  1
 Nb  Nb6  1  0.33333  0.66667  0.49976  1
 Se  Se1  1  0.00474  0.33339  0.87016  1
 Se  Se2  1  0.33339  0.32866  0.37016  1
 Se  Se3  1  0.99526  0.32866  0.12984  1
 Se  Se4  1  0.99526  0.66661  0.37016  1
 Se  Se5  1  0.32866  0.33339  0.62984  1
 Se  Se6  1  0.67134  0.00474  0.37016  1
 Se  Se7  1  0.33339  0.00474  0.12984  1
 Se  Se8  1  0.66661  0.67134  0.87016  1
 Se  Se9  1  0.32866  0.99526  0.87016  1
 Se  Se10  1  0.00474  0.67134  0.62984  1
 Se  Se11  1  0.67134  0.66661  0.12984  1
 Se  Se12  1  0.66661  0.99526  0.62984  1
 Ti  Ti1  1  0.66667  0.33333  0.75000  1
 Ti  Ti2  1  0.33333  0.66667  0.25000  1
