CIF file written using JARVIS-Tools package.
data_Ta3VSe6
_symmetry_space_group_name_H-M  'P6_322'
_cell_length_a       6.03707
_cell_length_b       6.03708
_cell_length_c       12.8376
_cell_angle_alpha    90
_cell_angle_beta     90
_cell_angle_gamma    120

_symmetry_Int_Tables_number  182
_chemical_formula_structural  Ta3VSe6
_chemical_formula_sum  Ta6V2Se2
_cell_volume  405.198151434794
_cell_formula_units_Z  2
loop_
  _symmetry_equiv_pos_site_id
 _symmetry_equiv_pos_as_xyz
 1  'x, y, z'
loop_
 _atom_site_type_symbol
 _atom_site_label
 _atom_site_symmetry_multiplicity
 _atom_site_fract_x
 _atom_site_fract_y
 _atom_site_fract_z
 _atom_site_fract_occupancy
 Se  Se1  1  0.00479  0.33322  0.86895  1
 Se  Se2  1  0.33322  0.32842  0.36895  1
 Se  Se3  1  0.99521  0.32842  0.13105  1
 Se  Se4  1  0.99521  0.66678  0.36895  1
 Se  Se5  1  0.32842  0.33322  0.63105  1
 Se  Se6  1  0.67158  0.00479  0.36895  1
 Se  Se7  1  0.66678  0.99521  0.63105  1
 Se  Se8  1  0.66678  0.67158  0.86895  1
 Se  Se9  1  0.32842  0.99521  0.86895  1
 Se  Se10  1  0.33322  0.00479  0.13105  1
 Se  Se11  1  0.67158  0.66678  0.13105  1
 Se  Se12  1  0.00479  0.67158  0.63105  1
 Ta  Ta1  1  0.33333  0.66667  0.49950  1
 Ta  Ta2  1  0.66667  0.33333  0.50050  1
 Ta  Ta3  1  0.66667  0.33333  -0.00050  1
 Ta  Ta4  1  0.33333  0.66667  0.00050  1
 Ta  Ta5  1  0.00000  0.00000  0.00000  1
 Ta  Ta6  1  0.00000  0.00000  0.50000  1
 V  V1  1  0.66667  0.33333  0.75000  1
 V  V2  1  0.33333  0.66667  0.25000  1
