CIF file written using JARVIS-Tools package.
data_Pb2SeN2O9
_symmetry_space_group_name_H-M  'Pmn2_1'
_cell_length_a       5.55081
_cell_length_b       7.30072
_cell_length_c       10.122
_cell_angle_alpha    90
_cell_angle_beta     90
_cell_angle_gamma    90

_symmetry_Int_Tables_number  31
_chemical_formula_structural  Pb2SeN2O9
_chemical_formula_sum  Pb4Se2N4O8
_cell_volume  410.190951788843
_cell_formula_units_Z  2
loop_
  _symmetry_equiv_pos_site_id
 _symmetry_equiv_pos_as_xyz
 1  'x, y, z'
loop_
 _atom_site_type_symbol
 _atom_site_label
 _atom_site_symmetry_multiplicity
 _atom_site_fract_x
 _atom_site_fract_y
 _atom_site_fract_z
 _atom_site_fract_occupancy
 N  N1  1  0.50000  0.49690  0.27108  1
 N  N2  1  0.00000  -0.00310  0.72892  1
 N  N3  1  0.50000  0.26225  -0.00392  1
 N  N4  1  0.00000  0.76225  0.00392  1
 O  O1  1  0.00000  0.83900  0.68021  1
 O  O2  1  0.50000  0.76076  0.53539  1
 O  O3  1  0.00000  0.26076  0.46461  1
 O  O4  1  0.26061  0.48999  0.65008  1
 O  O5  1  0.30130  0.57873  0.24574  1
 O  O6  1  0.23939  0.98999  0.34992  1
 O  O7  1  0.76061  0.98999  0.34992  1
 O  O8  1  0.50000  0.37490  0.90074  1
 O  O9  1  0.73939  0.48999  0.65008  1
 O  O10  1  0.30101  0.20476  0.04332  1
 O  O11  1  0.19899  0.70476  0.95668  1
 O  O12  1  0.69870  0.57873  0.24574  1
 O  O13  1  0.50000  0.33900  0.31979  1
 O  O14  1  0.00000  0.87490  0.09926  1
 O  O15  1  0.19870  0.07873  0.75426  1
 O  O16  1  0.80130  0.07873  0.75426  1
 O  O17  1  0.69899  0.20476  0.04332  1
 O  O18  1  0.80101  0.70476  0.95668  1
 Pb  Pb1  1  0.00000  0.59791  0.47129  1
 Pb  Pb2  1  0.50000  0.09791  0.52871  1
 Pb  Pb3  1  0.00000  0.39540  0.83972  1
 Pb  Pb4  1  0.50000  0.89540  0.16028  1
 Se  Se1  1  0.00000  0.13996  0.31781  1
 Se  Se2  1  0.50000  0.63996  0.68219  1
