CIF file written using JARVIS-Tools package.
data_La6Mg23P
_symmetry_space_group_name_H-M  'Fm-3m'
_cell_length_a       10.2753
_cell_length_b       10.2753
_cell_length_c       10.2752
_cell_angle_alpha    60
_cell_angle_beta     60
_cell_angle_gamma    60

_symmetry_Int_Tables_number  225
_chemical_formula_structural  La6Mg23P
_chemical_formula_sum  La6Mg23P
_cell_volume  767.1189220257902
_cell_formula_units_Z  1
loop_
  _symmetry_equiv_pos_site_id
 _symmetry_equiv_pos_as_xyz
 1  'x, y, z'
loop_
 _atom_site_type_symbol
 _atom_site_label
 _atom_site_symmetry_multiplicity
 _atom_site_fract_x
 _atom_site_fract_y
 _atom_site_fract_z
 _atom_site_fract_occupancy
 La  La1  1  0.79753  0.79753  0.20247  1
 La  La2  1  0.20247  0.79753  0.20247  1
 La  La3  1  0.79753  0.20247  0.20247  1
 La  La4  1  0.20247  0.20247  0.79753  1
 La  La5  1  0.79753  0.20247  0.79753  1
 La  La6  1  0.20247  0.79753  0.79753  1
 Mg  Mg1  1  0.50000  0.50000  0.50000  1
 Mg  Mg2  1  0.17155  0.17155  0.17155  1
 Mg  Mg3  1  0.48534  0.17155  0.17155  1
 Mg  Mg4  1  0.17155  0.48534  0.17155  1
 Mg  Mg5  1  0.51466  0.82845  0.82845  1
 Mg  Mg6  1  0.82845  0.82845  0.82845  1
 Mg  Mg7  1  0.62168  0.13495  0.62168  1
 Mg  Mg8  1  0.82845  0.51466  0.82845  1
 Mg  Mg9  1  0.82845  0.82845  0.51466  1
 Mg  Mg10  1  0.17155  0.17155  0.48534  1
 Mg  Mg11  1  0.62168  0.62168  0.13495  1
 Mg  Mg12  1  0.50000  0.00000  0.00000  1
 Mg  Mg13  1  0.50000  0.00000  0.50000  1
 Mg  Mg14  1  0.13495  0.62168  0.62168  1
 Mg  Mg15  1  0.00000  0.50000  0.00000  1
 Mg  Mg16  1  0.37832  0.37832  0.86505  1
 Mg  Mg17  1  0.00000  0.50000  0.50000  1
 Mg  Mg18  1  0.50000  0.50000  0.00000  1
 Mg  Mg19  1  0.00000  0.00000  0.50000  1
 Mg  Mg20  1  0.37832  0.37832  0.37832  1
 Mg  Mg21  1  0.86505  0.37832  0.37832  1
 Mg  Mg22  1  0.37832  0.86505  0.37832  1
 Mg  Mg23  1  0.62168  0.62168  0.62168  1
 P  P1  1  0.00000  0.00000  0.00000  1
