CIF file written using JARVIS-Tools package.
data_TmCoB4
_symmetry_space_group_name_H-M  'Pbam'
_cell_length_a       3.36147
_cell_length_b       5.84626
_cell_length_c       11.3223
_cell_angle_alpha    90
_cell_angle_beta     90
_cell_angle_gamma    90

_symmetry_Int_Tables_number  55
_chemical_formula_structural  TmCoB4
_chemical_formula_sum  Tm4Co4B6
_cell_volume  222.5064474710736
_cell_formula_units_Z  4
loop_
  _symmetry_equiv_pos_site_id
 _symmetry_equiv_pos_as_xyz
 1  'x, y, z'
loop_
 _atom_site_type_symbol
 _atom_site_label
 _atom_site_symmetry_multiplicity
 _atom_site_fract_x
 _atom_site_fract_y
 _atom_site_fract_z
 _atom_site_fract_occupancy
 B  B1  1  0.00000  0.47741  0.69153  1
 B  B2  1  0.00000  0.11172  0.04654  1
 B  B3  1  0.00000  0.88828  0.95346  1
 B  B4  1  0.00000  0.38828  0.54654  1
 B  B5  1  0.00000  0.28477  0.81503  1
 B  B6  1  0.00000  0.13777  0.46802  1
 B  B7  1  0.00000  0.86223  0.53198  1
 B  B8  1  0.00000  0.61172  0.45346  1
 B  B9  1  0.00000  0.63777  0.03198  1
 B  B10  1  0.00000  0.02259  0.19153  1
 B  B11  1  0.00000  0.97741  0.80847  1
 B  B12  1  0.00000  0.71523  0.18497  1
 B  B13  1  0.00000  0.52259  0.30847  1
 B  B14  1  0.00000  0.21523  0.31503  1
 B  B15  1  0.00000  0.78477  0.68497  1
 B  B16  1  0.00000  0.36223  0.96802  1
 Co  Co1  1  0.50000  0.86405  0.09009  1
 Co  Co2  1  0.50000  0.13595  0.90991  1
 Co  Co3  1  0.50000  0.63595  0.59009  1
 Co  Co4  1  0.50000  0.36405  0.40991  1
 Tm  Tm1  1  0.50000  0.87163  0.35009  1
 Tm  Tm2  1  0.50000  0.12837  0.64991  1
 Tm  Tm3  1  0.50000  0.62837  0.85009  1
 Tm  Tm4  1  0.50000  0.37163  0.14991  1
