CIF file written using JARVIS-Tools package.
data_PrPS
_symmetry_space_group_name_H-M  'Pnma'
_cell_length_a       5.559
_cell_length_b       5.61863
_cell_length_c       17.2988
_cell_angle_alpha    90
_cell_angle_beta     90
_cell_angle_gamma    90

_symmetry_Int_Tables_number  62
_chemical_formula_structural  PrPS
_chemical_formula_sum  Pr8P8S8
_cell_volume  540.3091497303476
_cell_formula_units_Z  8
loop_
  _symmetry_equiv_pos_site_id
 _symmetry_equiv_pos_as_xyz
 1  'x, y, z'
loop_
 _atom_site_type_symbol
 _atom_site_label
 _atom_site_symmetry_multiplicity
 _atom_site_fract_x
 _atom_site_fract_y
 _atom_site_fract_z
 _atom_site_fract_occupancy
 P  P1  1  0.95653  0.69704  0.00265  1
 P  P2  1  0.04347  0.30296  0.99735  1
 P  P3  1  0.45653  0.80296  0.50265  1
 P  P4  1  0.54347  0.69704  0.00265  1
 P  P5  1  0.95653  0.19704  0.49735  1
 P  P6  1  0.54347  0.19704  0.49735  1
 P  P7  1  0.45653  0.30296  0.99735  1
 P  P8  1  0.04347  0.80296  0.50265  1
 Pr  Pr1  1  0.25000  0.48207  0.36270  1
 Pr  Pr2  1  0.75000  0.98187  0.35215  1
 Pr  Pr3  1  0.25000  0.51813  0.85215  1
 Pr  Pr4  1  0.25000  0.01813  0.64785  1
 Pr  Pr5  1  0.75000  0.01793  0.86270  1
 Pr  Pr6  1  0.75000  0.51793  0.63730  1
 Pr  Pr7  1  0.25000  0.98207  0.13730  1
 Pr  Pr8  1  0.75000  0.48187  0.14785  1
 S  S1  1  0.75000  0.98580  0.18259  1
 S  S2  1  0.25000  0.48332  0.18951  1
 S  S3  1  0.25000  0.98332  0.31049  1
 S  S4  1  0.75000  0.51668  0.81049  1
 S  S5  1  0.75000  0.01668  0.68951  1
 S  S6  1  0.25000  0.01420  0.81741  1
 S  S7  1  0.25000  0.51420  0.68259  1
 S  S8  1  0.75000  0.48580  0.31741  1
