CIF file written using JARVIS-Tools package.
data_U6Al8Fe5Si9
_symmetry_space_group_name_H-M  'Immm'
_cell_length_a       11.1226
_cell_length_b       11.1226
_cell_length_c       11.1226
_cell_angle_alpha    158.826
_cell_angle_beta     113.38
_cell_angle_gamma    70.7731

_symmetry_Int_Tables_number  71
_chemical_formula_structural  U6Al8Fe5Si9
_chemical_formula_sum  U6Al8Fe5Si9
_cell_volume  452.7583083557249
_cell_formula_units_Z  1
loop_
  _symmetry_equiv_pos_site_id
 _symmetry_equiv_pos_as_xyz
 1  'x, y, z'
loop_
 _atom_site_type_symbol
 _atom_site_label
 _atom_site_symmetry_multiplicity
 _atom_site_fract_x
 _atom_site_fract_y
 _atom_site_fract_z
 _atom_site_fract_occupancy
 Al  Al1  1  0.66355  0.50000  0.16355  1
 Al  Al2  1  0.38288  0.38288  -0.00000  1
 Al  Al3  1  0.61712  0.61712  0.00000  1
 Al  Al4  1  0.33645  0.50000  0.83645  1
 Al  Al5  1  0.73602  0.23602  0.50000  1
 Al  Al6  1  0.26398  0.76398  0.50000  1
 Al  Al7  1  0.84917  -0.00000  0.84917  1
 Al  Al8  1  0.15083  0.00000  0.15083  1
 Fe  Fe1  1  0.97161  0.28644  0.68517  1
 Fe  Fe2  1  0.02839  0.71356  0.31483  1
 Fe  Fe3  1  0.60127  0.28644  0.31483  1
 Fe  Fe4  1  0.00000  0.50000  0.50000  1
 Fe  Fe5  1  0.39873  0.71356  0.68517  1
 Si  Si1  1  0.39223  0.26051  0.13172  1
 Si  Si2  1  0.60777  0.73949  0.86828  1
 Si  Si3  1  0.12879  0.26051  0.86828  1
 Si  Si4  1  0.06629  0.41149  0.65480  1
 Si  Si5  1  0.24330  0.58851  0.65480  1
 Si  Si6  1  0.87121  0.73949  0.13172  1
 Si  Si7  1  0.50000  0.00000  0.50000  1
 Si  Si8  1  0.75670  0.41149  0.34520  1
 Si  Si9  1  0.93371  0.58851  0.34520  1
 U  U1  1  0.81086  0.12524  0.68561  1
 U  U2  1  0.56037  0.87476  0.68561  1
 U  U3  1  0.43963  0.12524  0.31439  1
 U  U4  1  0.18914  0.87476  0.31439  1
 U  U5  1  0.12729  0.12729  -0.00000  1
 U  U6  1  0.87271  0.87271  0.00000  1
