CIF file written using JARVIS-Tools package.
data_Sc2Co3Si5
_symmetry_space_group_name_H-M  'C2/c'
_cell_length_a       7.66482
_cell_length_b       7.66482
_cell_length_c       5.3572
_cell_angle_alpha    71.2752
_cell_angle_beta     71.2753
_cell_angle_gamma    94.0937

_symmetry_Int_Tables_number  15
_chemical_formula_structural  Sc2Co3Si5
_chemical_formula_sum  Sc4Co6Si0
_cell_volume  276.90743952702786
_cell_formula_units_Z  2
loop_
  _symmetry_equiv_pos_site_id
 _symmetry_equiv_pos_as_xyz
 1  'x, y, z'
loop_
 _atom_site_type_symbol
 _atom_site_label
 _atom_site_symmetry_multiplicity
 _atom_site_fract_x
 _atom_site_fract_y
 _atom_site_fract_z
 _atom_site_fract_occupancy
 Co  Co1  1  0.73705  0.45610  0.37301  1
 Co  Co2  1  0.26295  0.54390  0.62699  1
 Co  Co3  1  0.45610  0.73705  0.87301  1
 Co  Co4  1  0.99759  0.00241  0.25000  1
 Co  Co5  1  0.00241  0.99759  0.75000  1
 Co  Co6  1  0.54390  0.26295  0.12699  1
 Sc  Sc1  1  0.87221  0.59111  0.76527  1
 Sc  Sc2  1  0.12779  0.40889  0.23473  1
 Sc  Sc3  1  0.40889  0.12779  0.73473  1
 Sc  Sc4  1  0.59111  0.87221  0.26527  1
 Si  Si1  1  0.48623  0.51377  0.25000  1
 Si  Si2  1  0.77357  0.22643  0.75000  1
 Si  Si3  1  0.07528  0.26576  0.82875  1
 Si  Si4  1  0.73424  0.92472  0.67125  1
 Si  Si5  1  0.92472  0.73424  0.17125  1
 Si  Si6  1  0.26576  0.07528  0.32875  1
 Si  Si7  1  0.20935  0.79065  0.75000  1
 Si  Si8  1  0.79065  0.20935  0.25000  1
 Si  Si9  1  0.51377  0.48623  0.75000  1
 Si  Si10  1  0.22643  0.77357  0.25000  1
