CIF file written using JARVIS-Tools package.
data_K3SbS3
_symmetry_space_group_name_H-M  'P2_13'
_cell_length_a       9.40835
_cell_length_b       9.40835
_cell_length_c       9.40835
_cell_angle_alpha    90
_cell_angle_beta     90
_cell_angle_gamma    90

_symmetry_Int_Tables_number  198
_chemical_formula_structural  K3SbS3
_chemical_formula_sum  K2Sb4S2
_cell_volume  832.7994423023463
_cell_formula_units_Z  4
loop_
  _symmetry_equiv_pos_site_id
 _symmetry_equiv_pos_as_xyz
 1  'x, y, z'
loop_
 _atom_site_type_symbol
 _atom_site_label
 _atom_site_symmetry_multiplicity
 _atom_site_fract_x
 _atom_site_fract_y
 _atom_site_fract_z
 _atom_site_fract_occupancy
 K  K1  1  0.43913  0.93913  0.56087  1
 K  K2  1  0.82204  0.82204  0.82204  1
 K  K3  1  0.32204  0.67796  0.17796  1
 K  K4  1  0.67796  0.17796  0.32204  1
 K  K5  1  0.56841  0.56841  0.56841  1
 K  K6  1  0.06841  0.93159  0.43159  1
 K  K7  1  0.17796  0.32204  0.67796  1
 K  K8  1  0.93159  0.43159  0.06841  1
 K  K9  1  0.06087  0.06087  0.06087  1
 K  K10  1  0.56087  0.43913  0.93913  1
 K  K11  1  0.93913  0.56087  0.43913  1
 K  K12  1  0.43159  0.06841  0.93159  1
 S  S1  1  0.74763  0.85351  0.46969  1
 S  S2  1  0.35351  0.03031  0.25237  1
 S  S3  1  0.53031  0.24763  0.64649  1
 S  S4  1  0.75237  0.14649  0.96969  1
 S  S5  1  0.85351  0.46969  0.74763  1
 S  S6  1  0.96969  0.75237  0.14649  1
 S  S7  1  0.64649  0.53031  0.24763  1
 S  S8  1  0.03031  0.25237  0.35351  1
 S  S9  1  0.24763  0.64649  0.53031  1
 S  S10  1  0.14649  0.96969  0.75237  1
 S  S11  1  0.25237  0.35351  0.03031  1
 S  S12  1  0.46969  0.74763  0.85351  1
 Sb  Sb1  1  0.21839  0.71839  0.78161  1
 Sb  Sb2  1  0.71839  0.78161  0.21839  1
 Sb  Sb3  1  0.28161  0.28161  0.28161  1
 Sb  Sb4  1  0.78161  0.21839  0.71839  1
