CIF file written using JARVIS-Tools package.
data_Zr6Ga16Pt7
_symmetry_space_group_name_H-M  'Fm-3m'
_cell_length_a       8.87278
_cell_length_b       8.87278
_cell_length_c       8.87278
_cell_angle_alpha    60
_cell_angle_beta     60
_cell_angle_gamma    60

_symmetry_Int_Tables_number  225
_chemical_formula_structural  Zr6Ga16Pt7
_chemical_formula_sum  Zr6Ga6Pt7
_cell_volume  493.9288351713167
_cell_formula_units_Z  1
loop_
  _symmetry_equiv_pos_site_id
 _symmetry_equiv_pos_as_xyz
 1  'x, y, z'
loop_
 _atom_site_type_symbol
 _atom_site_label
 _atom_site_symmetry_multiplicity
 _atom_site_fract_x
 _atom_site_fract_y
 _atom_site_fract_z
 _atom_site_fract_occupancy
 Ga  Ga1  1  0.63116  0.12295  0.12295  1
 Ga  Ga2  1  0.36884  0.87705  0.87705  1
 Ga  Ga3  1  0.87705  0.87705  0.87705  1
 Ga  Ga4  1  0.12295  0.12295  0.63116  1
 Ga  Ga5  1  0.12295  0.63116  0.12295  1
 Ga  Ga6  1  0.12295  0.12295  0.12295  1
 Ga  Ga7  1  0.65226  0.65226  0.04323  1
 Ga  Ga8  1  0.65226  0.04323  0.65226  1
 Ga  Ga9  1  0.04323  0.65226  0.65226  1
 Ga  Ga10  1  0.87705  0.36884  0.87705  1
 Ga  Ga11  1  0.65226  0.65226  0.65226  1
 Ga  Ga12  1  0.34774  0.95677  0.34774  1
 Ga  Ga13  1  0.95677  0.34774  0.34774  1
 Ga  Ga14  1  0.34774  0.34774  0.34774  1
 Ga  Ga15  1  0.34774  0.34774  0.95677  1
 Ga  Ga16  1  0.87705  0.87705  0.36884  1
 Pt  Pt1  1  0.00000  0.50000  0.00000  1
 Pt  Pt2  1  0.00000  0.00000  0.00000  1
 Pt  Pt3  1  0.00000  0.00000  0.50000  1
 Pt  Pt4  1  0.50000  0.00000  0.50000  1
 Pt  Pt5  1  0.00000  0.50000  0.50000  1
 Pt  Pt6  1  0.50000  0.00000  0.00000  1
 Pt  Pt7  1  0.50000  0.50000  0.00000  1
 Zr  Zr1  1  0.29893  0.70107  0.70107  1
 Zr  Zr2  1  0.70107  0.29893  0.70107  1
 Zr  Zr3  1  0.29893  0.29893  0.70107  1
 Zr  Zr4  1  0.70107  0.29893  0.29893  1
 Zr  Zr5  1  0.29893  0.70107  0.29893  1
 Zr  Zr6  1  0.70107  0.70107  0.29893  1
