CIF file written using JARVIS-Tools package.
data_MnNb4Se8
_symmetry_space_group_name_H-M  'P6_3/mmc'
_cell_length_a       6.96104
_cell_length_b       6.96104
_cell_length_c       12.3915
_cell_angle_alpha    90
_cell_angle_beta     90
_cell_angle_gamma    120

_symmetry_Int_Tables_number  194
_chemical_formula_structural  MnNb4Se8
_chemical_formula_sum  Mn2Nb8Se6
_cell_volume  520.0010703758837
_cell_formula_units_Z  2
loop_
  _symmetry_equiv_pos_site_id
 _symmetry_equiv_pos_as_xyz
 1  'x, y, z'
loop_
 _atom_site_type_symbol
 _atom_site_label
 _atom_site_symmetry_multiplicity
 _atom_site_fract_x
 _atom_site_fract_y
 _atom_site_fract_z
 _atom_site_fract_occupancy
 Mn  Mn1  1  0.00000  0.00000  0.50000  1
 Mn  Mn2  1  0.00000  0.00000  0.00000  1
 Nb  Nb1  1  0.98451  0.49226  0.25000  1
 Nb  Nb2  1  0.00000  0.00000  0.75000  1
 Nb  Nb3  1  0.50774  0.01549  0.25000  1
 Nb  Nb4  1  0.00000  0.00000  0.25000  1
 Nb  Nb5  1  0.50774  0.49226  0.25000  1
 Nb  Nb6  1  0.49226  0.98451  0.75000  1
 Nb  Nb7  1  0.49226  0.50774  0.75000  1
 Nb  Nb8  1  0.01549  0.50774  0.75000  1
 Se  Se1  1  0.16606  0.33213  0.38552  1
 Se  Se2  1  0.33333  0.66667  0.89100  1
 Se  Se3  1  0.66667  0.33333  0.10900  1
 Se  Se4  1  0.16606  0.33213  0.11448  1
 Se  Se5  1  0.33333  0.66667  0.60900  1
 Se  Se6  1  0.16606  0.83394  0.38552  1
 Se  Se7  1  0.66667  0.33333  0.39100  1
 Se  Se8  1  0.33213  0.16606  0.88552  1
 Se  Se9  1  0.33213  0.16606  0.61448  1
 Se  Se10  1  0.83394  0.16606  0.88552  1
 Se  Se11  1  0.83394  0.66787  0.88552  1
 Se  Se12  1  0.66787  0.83394  0.38552  1
 Se  Se13  1  0.16606  0.83394  0.11448  1
 Se  Se14  1  0.83394  0.66787  0.61448  1
 Se  Se15  1  0.83394  0.16606  0.61448  1
 Se  Se16  1  0.66787  0.83394  0.11448  1
