CIF file written using JARVIS-Tools package.
data_Ca3Al2P4
_symmetry_space_group_name_H-M  'C2/c'
_cell_length_a       7.99962
_cell_length_b       7.99962
_cell_length_c       6.43819
_cell_angle_alpha    89.4118
_cell_angle_beta     89.4119
_cell_angle_gamma    75.8512

_symmetry_Int_Tables_number  15
_chemical_formula_structural  Ca3Al2P4
_chemical_formula_sum  Ca6Al4P8
_cell_volume  399.4726669558506
_cell_formula_units_Z  2
loop_
  _symmetry_equiv_pos_site_id
 _symmetry_equiv_pos_as_xyz
 1  'x, y, z'
loop_
 _atom_site_type_symbol
 _atom_site_label
 _atom_site_symmetry_multiplicity
 _atom_site_fract_x
 _atom_site_fract_y
 _atom_site_fract_z
 _atom_site_fract_occupancy
 Al  Al1  1  0.57976  0.82738  0.40994  1
 Al  Al2  1  0.17262  0.42024  0.09006  1
 Al  Al3  1  0.42024  0.17262  0.59006  1
 Al  Al4  1  0.82738  0.57976  0.90994  1
 Ca  Ca1  1  0.40065  0.59935  0.75000  1
 Ca  Ca2  1  0.75138  0.00852  0.97208  1
 Ca  Ca3  1  0.00852  0.75138  0.47208  1
 Ca  Ca4  1  0.24862  0.99148  0.02792  1
 Ca  Ca5  1  0.99148  0.24862  0.52792  1
 Ca  Ca6  1  0.59935  0.40065  0.25000  1
 P  P1  1  0.25742  0.43195  0.43848  1
 P  P2  1  0.43195  0.25742  0.93848  1
 P  P3  1  0.71620  0.05828  0.47687  1
 P  P4  1  0.94172  0.28380  0.02313  1
 P  P5  1  0.28380  0.94172  0.52313  1
 P  P6  1  0.05828  0.71620  0.97687  1
 P  P7  1  0.56805  0.74258  0.06152  1
 P  P8  1  0.74258  0.56805  0.56152  1
