CIF file written using JARVIS-Tools package.
data_CeRhC2
_symmetry_space_group_name_H-M  'P4_1'
_cell_length_a       3.88141
_cell_length_b       3.88141
_cell_length_c       15.4414
_cell_angle_alpha    90
_cell_angle_beta     90
_cell_angle_gamma    90

_symmetry_Int_Tables_number  76
_chemical_formula_structural  CeRhC2
_chemical_formula_sum  Ce4Rh4C8
_cell_volume  232.63021933890602
_cell_formula_units_Z  4
loop_
  _symmetry_equiv_pos_site_id
 _symmetry_equiv_pos_as_xyz
 1  'x, y, z'
loop_
 _atom_site_type_symbol
 _atom_site_label
 _atom_site_symmetry_multiplicity
 _atom_site_fract_x
 _atom_site_fract_y
 _atom_site_fract_z
 _atom_site_fract_occupancy
 C  C1  1  0.35309  0.34850  0.33610  1
 C  C2  1  0.64691  0.65150  0.83610  1
 C  C3  1  0.34850  0.64691  0.08610  1
 C  C4  1  0.65150  0.35309  0.58610  1
 C  C5  1  0.35935  0.14105  0.26486  1
 C  C6  1  0.64065  0.85895  0.76486  1
 C  C7  1  0.14105  0.64065  0.01486  1
 C  C8  1  0.85895  0.35935  0.51486  1
 Ce  Ce1  1  0.13950  0.86426  0.62376  1
 Ce  Ce2  1  0.86050  0.13574  0.12376  1
 Ce  Ce3  1  0.86426  0.86050  0.37376  1
 Ce  Ce4  1  0.13574  0.13950  0.87376  1
 Rh  Rh1  1  0.36217  0.64818  0.21928  1
 Rh  Rh2  1  0.63783  0.35182  0.71928  1
 Rh  Rh3  1  0.64818  0.63783  0.96928  1
 Rh  Rh4  1  0.35182  0.36217  0.46928  1
