CIF file written using JARVIS-Tools package.
data_Ti6Al16Ir7
_symmetry_space_group_name_H-M  'Fm-3m'
_cell_length_a       8.59092
_cell_length_b       8.59092
_cell_length_c       8.59092
_cell_angle_alpha    60
_cell_angle_beta     60
_cell_angle_gamma    60

_symmetry_Int_Tables_number  225
_chemical_formula_structural  Ti6Al16Ir7
_chemical_formula_sum  Ti6Al6Ir7
_cell_volume  448.3366702290062
_cell_formula_units_Z  1
loop_
  _symmetry_equiv_pos_site_id
 _symmetry_equiv_pos_as_xyz
 1  'x, y, z'
loop_
 _atom_site_type_symbol
 _atom_site_label
 _atom_site_symmetry_multiplicity
 _atom_site_fract_x
 _atom_site_fract_y
 _atom_site_fract_z
 _atom_site_fract_occupancy
 Al  Al1  1  0.63881  0.12040  0.12040  1
 Al  Al2  1  0.36119  0.87960  0.87960  1
 Al  Al3  1  0.87960  0.87960  0.87960  1
 Al  Al4  1  0.12040  0.12040  0.63881  1
 Al  Al5  1  0.12040  0.63881  0.12040  1
 Al  Al6  1  0.12040  0.12040  0.12040  1
 Al  Al7  1  0.65731  0.65731  0.02806  1
 Al  Al8  1  0.65731  0.02806  0.65731  1
 Al  Al9  1  0.02806  0.65731  0.65731  1
 Al  Al10  1  0.87960  0.36119  0.87960  1
 Al  Al11  1  0.65731  0.65731  0.65731  1
 Al  Al12  1  0.34269  0.97194  0.34269  1
 Al  Al13  1  0.97194  0.34269  0.34269  1
 Al  Al14  1  0.34269  0.34269  0.34269  1
 Al  Al15  1  0.34269  0.34269  0.97194  1
 Al  Al16  1  0.87960  0.87960  0.36119  1
 Ir  Ir1  1  0.00000  0.50000  0.00000  1
 Ir  Ir2  1  0.00000  0.00000  0.00000  1
 Ir  Ir3  1  0.00000  0.00000  0.50000  1
 Ir  Ir4  1  0.50000  0.00000  0.50000  1
 Ir  Ir5  1  0.00000  0.50000  0.50000  1
 Ir  Ir6  1  0.50000  0.00000  0.00000  1
 Ir  Ir7  1  0.50000  0.50000  0.00000  1
 Ti  Ti1  1  0.32534  0.67466  0.67466  1
 Ti  Ti2  1  0.67466  0.32534  0.67466  1
 Ti  Ti3  1  0.32534  0.32534  0.67466  1
 Ti  Ti4  1  0.67466  0.32534  0.32534  1
 Ti  Ti5  1  0.32534  0.67466  0.32534  1
 Ti  Ti6  1  0.67466  0.67466  0.32534  1
