CIF file written using JARVIS-Tools package.
data_Pr12Co6Pb
_symmetry_space_group_name_H-M  'Im-3'
_cell_length_a       8.71428
_cell_length_b       8.71427
_cell_length_c       8.71427
_cell_angle_alpha    109.471
_cell_angle_beta     109.471
_cell_angle_gamma    109.471

_symmetry_Int_Tables_number  204
_chemical_formula_structural  Pr12Co6Pb
_chemical_formula_sum  Pr2Co6Pb
_cell_volume  509.41481048557665
_cell_formula_units_Z  1
loop_
  _symmetry_equiv_pos_site_id
 _symmetry_equiv_pos_as_xyz
 1  'x, y, z'
loop_
 _atom_site_type_symbol
 _atom_site_label
 _atom_site_symmetry_multiplicity
 _atom_site_fract_x
 _atom_site_fract_y
 _atom_site_fract_z
 _atom_site_fract_occupancy
 Co  Co1  1  0.61064  0.50000  0.11064  1
 Co  Co2  1  0.38936  0.50000  0.88936  1
 Co  Co3  1  0.11064  0.61064  0.50000  1
 Co  Co4  1  0.88936  0.38936  0.50000  1
 Co  Co5  1  0.50000  0.11064  0.61064  1
 Co  Co6  1  0.50000  0.88936  0.38936  1
 Pb  Pb1  1  0.00000  0.00000  0.00000  1
 Pr  Pr1  1  0.30641  0.49939  0.19298  1
 Pr  Pr2  1  0.19298  0.30641  0.49939  1
 Pr  Pr3  1  0.80702  0.69359  0.50061  1
 Pr  Pr4  1  0.69359  0.50061  0.80702  1
 Pr  Pr5  1  0.49939  0.19298  0.30641  1
 Pr  Pr6  1  0.69359  0.88656  0.19298  1
 Pr  Pr7  1  0.30641  0.11344  0.80702  1
 Pr  Pr8  1  0.50061  0.80702  0.69359  1
 Pr  Pr9  1  0.11344  0.80702  0.30641  1
 Pr  Pr10  1  0.88656  0.19298  0.69359  1
 Pr  Pr11  1  0.80702  0.30641  0.11344  1
 Pr  Pr12  1  0.19298  0.69359  0.88656  1
