CIF file written using JARVIS-Tools package.
data_Sb2Cl7F3
_symmetry_space_group_name_H-M  'C2'
_cell_length_a       9.82083
_cell_length_b       9.82083
_cell_length_c       12.6985
_cell_angle_alpha    49.3559
_cell_angle_beta     49.356
_cell_angle_gamma    45.3141

_symmetry_Int_Tables_number  5
_chemical_formula_structural  Sb2Cl7F3
_chemical_formula_sum  Sb4Cl4F6
_cell_volume  616.8364964603408
_cell_formula_units_Z  2
loop_
  _symmetry_equiv_pos_site_id
 _symmetry_equiv_pos_as_xyz
 1  'x, y, z'
loop_
 _atom_site_type_symbol
 _atom_site_label
 _atom_site_symmetry_multiplicity
 _atom_site_fract_x
 _atom_site_fract_y
 _atom_site_fract_z
 _atom_site_fract_occupancy
 Cl  Cl1  1  0.31065  0.60588  0.20836  1
 Cl  Cl2  1  0.04108  0.83920  0.68802  1
 Cl  Cl3  1  0.71774  0.21274  0.26110  1
 Cl  Cl4  1  0.78726  0.28226  0.73890  1
 Cl  Cl5  1  0.39412  0.68935  0.79164  1
 Cl  Cl6  1  0.70127  0.69776  0.08376  1
 Cl  Cl7  1  0.34999  0.39926  0.56814  1
 Cl  Cl8  1  0.16080  -0.04108  0.31198  1
 Cl  Cl9  1  0.60074  0.65001  0.43186  1
 Cl  Cl10  1  0.28989  0.13512  0.47933  1
 Cl  Cl11  1  0.54967  0.90066  0.81072  1
 Cl  Cl12  1  0.09934  0.45033  0.18928  1
 Cl  Cl13  1  0.86488  0.71011  0.52067  1
 Cl  Cl14  1  0.30224  0.29873  0.91624  1
 F  F1  1  0.11908  0.04245  0.03813  1
 F  F2  1  0.14426  0.11684  0.78793  1
 F  F3  1  0.88316  0.85574  0.21207  1
 F  F4  1  -0.03760  0.42319  0.85523  1
 F  F5  1  0.95755  0.88092  0.96187  1
 F  F6  1  0.57681  0.03760  0.14477  1
 Sb  Sb1  1  0.10941  -0.01107  0.72354  1
 Sb  Sb2  1  0.01107  0.89059  0.27646  1
 Sb  Sb3  1  0.78782  0.75621  0.17834  1
 Sb  Sb4  1  0.24379  0.21218  0.82166  1
