CIF file written using JARVIS-Tools package.
data_Ho2CoPtO6
_symmetry_space_group_name_H-M  'P2_1/c'
_cell_length_a       5.80078
_cell_length_b       5.24597
_cell_length_c       9.19869
_cell_angle_alpha    55.1527
_cell_angle_beta     90
_cell_angle_gamma    90

_symmetry_Int_Tables_number  14
_chemical_formula_structural  Ho2CoPtO6
_chemical_formula_sum  Ho4Co2Pt2O2
_cell_volume  229.72634113558559
_cell_formula_units_Z  2
loop_
  _symmetry_equiv_pos_site_id
 _symmetry_equiv_pos_as_xyz
 1  'x, y, z'
loop_
 _atom_site_type_symbol
 _atom_site_label
 _atom_site_symmetry_multiplicity
 _atom_site_fract_x
 _atom_site_fract_y
 _atom_site_fract_z
 _atom_site_fract_occupancy
 Co  Co1  1  0.50000  0.50000  0.00000  1
 Co  Co2  1  0.00000  0.50000  0.50000  1
 Ho  Ho1  1  0.08242  0.72282  0.74967  1
 Ho  Ho2  1  0.91758  0.27718  0.25033  1
 Ho  Ho3  1  0.58242  0.27718  0.75033  1
 Ho  Ho4  1  0.41758  0.72282  0.24967  1
 O  O1  1  0.44912  0.87522  0.75400  1
 O  O2  1  0.80992  0.38404  0.93866  1
 O  O3  1  0.94912  0.12478  0.74600  1
 O  O4  1  0.05088  0.87522  0.25400  1
 O  O5  1  0.55088  0.12478  0.24600  1
 O  O6  1  0.18927  0.23940  0.44093  1
 O  O7  1  0.30992  0.61596  0.56134  1
 O  O8  1  0.68927  0.76060  0.05907  1
 O  O9  1  0.81073  0.76060  0.55907  1
 O  O10  1  0.69008  0.38404  0.43866  1
 O  O11  1  0.31073  0.23940  0.94093  1
 O  O12  1  0.19008  0.61596  0.06134  1
 Pt  Pt1  1  0.00000  0.00000  0.00000  1
 Pt  Pt2  1  0.50000  -0.00000  0.50000  1
