CIF file written using JARVIS-Tools package.
data_Ti4FeSe8
_symmetry_space_group_name_H-M  'C2/m'
_cell_length_a       6.84226
_cell_length_b       6.84226
_cell_length_c       8.43732
_cell_angle_alpha    54.1608
_cell_angle_beta     54.1608
_cell_angle_gamma    62.735

_symmetry_Int_Tables_number  12
_chemical_formula_structural  Ti4FeSe8
_chemical_formula_sum  Ti4FeSe8
_cell_volume  255.5628498661778
_cell_formula_units_Z  1
loop_
  _symmetry_equiv_pos_site_id
 _symmetry_equiv_pos_as_xyz
 1  'x, y, z'
loop_
 _atom_site_type_symbol
 _atom_site_label
 _atom_site_symmetry_multiplicity
 _atom_site_fract_x
 _atom_site_fract_y
 _atom_site_fract_z
 _atom_site_fract_occupancy
 Fe  Fe1  1  0.00000  0.00000  0.00000  1
 Se  Se1  1  0.44796  0.44796  0.33210  1
 Se  Se2  1  0.55204  0.55204  0.66790  1
 Se  Se3  1  0.55358  0.04812  0.16787  1
 Se  Se4  1  0.44642  0.95188  0.83213  1
 Se  Se5  1  0.95188  0.44642  0.83213  1
 Se  Se6  1  0.04812  0.55358  0.16787  1
 Se  Se7  1  0.95866  0.95866  0.32901  1
 Se  Se8  1  0.04134  0.04134  0.67099  1
 Ti  Ti1  1  0.73582  0.26418  0.50000  1
 Ti  Ti2  1  0.26418  0.73582  0.50000  1
 Ti  Ti3  1  0.74363  0.74363  0.00811  1
 Ti  Ti4  1  0.25637  0.25637  0.99189  1
