CIF file written using JARVIS-Tools package.
data_Ce3Sn3Ge2
_symmetry_space_group_name_H-M  'P6_3/mmc'
_cell_length_a       4.70205
_cell_length_b       4.70206
_cell_length_c       22.917
_cell_angle_alpha    90
_cell_angle_beta     90
_cell_angle_gamma    120

_symmetry_Int_Tables_number  194
_chemical_formula_structural  Ce3Sn3Ge2
_chemical_formula_sum  Ce6Sn6Ge4
_cell_volume  438.79699968342936
_cell_formula_units_Z  2
loop_
  _symmetry_equiv_pos_site_id
 _symmetry_equiv_pos_as_xyz
 1  'x, y, z'
loop_
 _atom_site_type_symbol
 _atom_site_label
 _atom_site_symmetry_multiplicity
 _atom_site_fract_x
 _atom_site_fract_y
 _atom_site_fract_z
 _atom_site_fract_occupancy
 Ce  Ce1  1  0.33333  0.66667  0.07342  1
 Ce  Ce2  1  0.66667  0.33333  0.92658  1
 Ce  Ce3  1  0.66667  0.33333  0.57342  1
 Ce  Ce4  1  0.33333  0.66667  0.42658  1
 Ce  Ce5  1  0.33333  0.66667  0.25000  1
 Ce  Ce6  1  0.66667  0.33333  0.75000  1
 Ge  Ge1  1  0.00000  0.00000  0.16598  1
 Ge  Ge2  1  0.00000  0.00000  0.83402  1
 Ge  Ge3  1  0.00000  0.00000  0.66598  1
 Ge  Ge4  1  0.00000  0.00000  0.33402  1
 Sn  Sn1  1  0.33333  0.66667  0.65770  1
 Sn  Sn2  1  0.66667  0.33333  0.34230  1
 Sn  Sn3  1  0.66667  0.33333  0.15770  1
 Sn  Sn4  1  0.33333  0.66667  0.84230  1
 Sn  Sn5  1  0.00000  0.00000  0.00000  1
 Sn  Sn6  1  0.00000  0.00000  0.50000  1
