CIF file written using JARVIS-Tools package.
data_Ho2MgTiO6
_symmetry_space_group_name_H-M  'P2_1/c'
_cell_length_a       5.60292
_cell_length_b       5.2819
_cell_length_c       9.25613
_cell_angle_alpha    55.547
_cell_angle_beta     90
_cell_angle_gamma    90

_symmetry_Int_Tables_number  14
_chemical_formula_structural  Ho2MgTiO6
_chemical_formula_sum  Ho4Mg2Ti2O2
_cell_volume  225.87710049211674
_cell_formula_units_Z  2
loop_
  _symmetry_equiv_pos_site_id
 _symmetry_equiv_pos_as_xyz
 1  'x, y, z'
loop_
 _atom_site_type_symbol
 _atom_site_label
 _atom_site_symmetry_multiplicity
 _atom_site_fract_x
 _atom_site_fract_y
 _atom_site_fract_z
 _atom_site_fract_occupancy
 Ho  Ho1  1  0.06855  0.72958  0.75182  1
 Ho  Ho2  1  0.93145  0.27042  0.24818  1
 Ho  Ho3  1  0.56855  0.27042  0.74818  1
 Ho  Ho4  1  0.43145  0.72958  0.25182  1
 Mg  Mg1  1  0.50000  0.50000  0.00000  1
 Mg  Mg2  1  0.00000  0.50000  0.50000  1
 O  O1  1  0.45693  0.87175  0.74401  1
 O  O2  1  0.81190  0.35812  0.94363  1
 O  O3  1  0.95693  0.12825  0.75599  1
 O  O4  1  0.04307  0.87175  0.24401  1
 O  O5  1  0.54307  0.12825  0.25599  1
 O  O6  1  0.20259  0.24661  0.43765  1
 O  O7  1  0.31190  0.64188  0.55637  1
 O  O8  1  0.70259  0.75339  0.06235  1
 O  O9  1  0.79741  0.75339  0.56235  1
 O  O10  1  0.68810  0.35812  0.44363  1
 O  O11  1  0.29741  0.24661  0.93765  1
 O  O12  1  0.18810  0.64188  0.05637  1
 Ti  Ti1  1  0.00000  0.00000  0.00000  1
 Ti  Ti2  1  0.50000  -0.00000  0.50000  1
