CIF file written using JARVIS-Tools package.
data_U5CrSb3
_symmetry_space_group_name_H-M  'P6_3/mcm'
_cell_length_a       5.87382
_cell_length_b       9.07656
_cell_length_c       9.07656
_cell_angle_alpha    120
_cell_angle_beta     90
_cell_angle_gamma    90

_symmetry_Int_Tables_number  193
_chemical_formula_structural  U5CrSb3
_chemical_formula_sum  U0Cr2Sb6
_cell_volume  419.0771800241062
_cell_formula_units_Z  2
loop_
  _symmetry_equiv_pos_site_id
 _symmetry_equiv_pos_as_xyz
 1  'x, y, z'
loop_
 _atom_site_type_symbol
 _atom_site_label
 _atom_site_symmetry_multiplicity
 _atom_site_fract_x
 _atom_site_fract_y
 _atom_site_fract_z
 _atom_site_fract_occupancy
 Cr  Cr1  1  0.50000  0.00000  0.00000  1
 Cr  Cr2  1  0.00000  0.00000  0.00000  1
 Sb  Sb1  1  0.25000  0.38977  -0.00000  1
 Sb  Sb2  1  0.75000  0.00000  0.61023  1
 Sb  Sb3  1  0.25000  0.61023  0.61023  1
 Sb  Sb4  1  0.75000  0.38977  0.38977  1
 Sb  Sb5  1  0.75000  0.61023  0.00000  1
 Sb  Sb6  1  0.25000  -0.00000  0.38977  1
 U  U1  1  0.75000  0.24638  -0.00000  1
 U  U2  1  0.75000  0.75362  0.75362  1
 U  U3  1  0.25000  0.00000  0.75362  1
 U  U4  1  0.50000  0.33333  0.66667  1
 U  U5  1  0.25000  0.75362  0.00000  1
 U  U6  1  0.00000  0.66667  0.33333  1
 U  U7  1  0.00000  0.33333  0.66667  1
 U  U8  1  0.50000  0.66667  0.33333  1
 U  U9  1  0.75000  -0.00000  0.24638  1
 U  U10  1  0.25000  0.24638  0.24638  1
