CIF file written using JARVIS-Tools package.
data_NaCrP2S6
_symmetry_space_group_name_H-M  'Fdd2'
_cell_length_a       11.8303
_cell_length_b       11.1932
_cell_length_c       6.78351
_cell_angle_alpha    78.0866
_cell_angle_beta     67.7849
_cell_angle_gamma    34.1286

_symmetry_Int_Tables_number  43
_chemical_formula_structural  NaCrP2S6
_chemical_formula_sum  Na2Cr2P4S2
_cell_volume  456.6432300811654
_cell_formula_units_Z  2
loop_
  _symmetry_equiv_pos_site_id
 _symmetry_equiv_pos_as_xyz
 1  'x, y, z'
loop_
 _atom_site_type_symbol
 _atom_site_label
 _atom_site_symmetry_multiplicity
 _atom_site_fract_x
 _atom_site_fract_y
 _atom_site_fract_z
 _atom_site_fract_occupancy
 Cr  Cr1  1  0.00052  0.00052  -0.00052  1
 Cr  Cr2  1  0.25052  0.25052  0.24948  1
 Na  Na1  1  0.33397  0.33397  0.66603  1
 Na  Na2  1  0.58397  0.58397  0.91603  1
 P  P1  1  0.10501  0.21643  0.01279  1
 P  P2  1  0.21643  0.10501  0.66576  1
 P  P3  1  0.23721  0.58424  0.14499  1
 P  P4  1  0.58424  0.23721  0.03357  1
 S  S1  1  0.85718  0.29589  0.16464  1
 S  S2  1  0.15661  0.68346  0.87641  1
 S  S3  1  0.08536  0.56771  0.39282  1
 S  S4  1  0.56771  0.08536  0.95411  1
 S  S5  1  0.29589  0.85718  0.68229  1
 S  S6  1  0.37359  0.96648  0.09339  1
 S  S7  1  0.19748  0.78021  0.24489  1
 S  S8  1  0.78021  0.19748  0.77742  1
 S  S9  1  0.00511  0.47258  0.05252  1
 S  S10  1  0.96648  0.37359  0.56654  1
 S  S11  1  0.47258  0.00511  0.46979  1
 S  S12  1  0.68346  0.15661  0.28352  1
