CIF file written using JARVIS-Tools package.
data_BaAs2Xe5F22
_symmetry_space_group_name_H-M  'Fmmm'
_cell_length_a       9.7853
_cell_length_b       8.95177
_cell_length_c       8.97805
_cell_angle_alpha    66.1524
_cell_angle_beta     56.7948
_cell_angle_gamma    57.0527

_symmetry_Int_Tables_number  69
_chemical_formula_structural  BaAs2Xe5F22
_chemical_formula_sum  BaAs2Xe5F22
_cell_volume  545.811563902472
_cell_formula_units_Z  1
loop_
  _symmetry_equiv_pos_site_id
 _symmetry_equiv_pos_as_xyz
 1  'x, y, z'
loop_
 _atom_site_type_symbol
 _atom_site_label
 _atom_site_symmetry_multiplicity
 _atom_site_fract_x
 _atom_site_fract_y
 _atom_site_fract_z
 _atom_site_fract_occupancy
 As  As1  1  0.00000  0.50000  -0.00000  1
 As  As2  1  0.50000  -0.00000  0.50000  1
 Ba  Ba1  1  0.00000  0.00000  0.00000  1
 F  F1  1  0.05074  0.29789  0.94926  1
 F  F2  1  0.94926  0.70211  0.05074  1
 F  F3  1  0.29789  0.05074  0.70211  1
 F  F4  1  0.70211  0.94926  0.29789  1
 F  F5  1  0.29492  0.93853  0.06147  1
 F  F6  1  0.70508  0.06147  0.93853  1
 F  F7  1  0.41557  0.22871  0.40316  1
 F  F8  1  0.06147  0.70508  0.29492  1
 F  F9  1  0.90263  0.09737  0.30744  1
 F  F10  1  0.93853  0.29492  0.70508  1
 F  F11  1  0.30744  0.69256  0.90263  1
 F  F12  1  0.40316  0.95256  0.41557  1
 F  F13  1  0.59684  0.04744  0.58443  1
 F  F14  1  0.09737  0.90263  0.69256  1
 F  F15  1  0.22871  0.41557  0.95256  1
 F  F16  1  0.77129  0.58443  0.04744  1
 F  F17  1  0.04744  0.59684  0.77129  1
 F  F18  1  0.95256  0.40316  0.22871  1
 F  F19  1  0.64999  0.35001  0.64999  1
 F  F20  1  0.35001  0.64999  0.35001  1
 F  F21  1  0.69256  0.30744  0.09737  1
 F  F22  1  0.58443  0.77129  0.59684  1
 Xe  Xe1  1  0.50000  0.50000  0.50000  1
 Xe  Xe2  1  0.00000  0.50000  0.50000  1
 Xe  Xe3  1  0.50000  -0.00000  0.00000  1
 Xe  Xe4  1  0.50000  0.50000  0.00000  1
 Xe  Xe5  1  -0.00000  -0.00000  0.50000  1
