CIF file written using JARVIS-Tools package.
data_SrNdNiO4
_symmetry_space_group_name_H-M  'Cmcm'
_cell_length_a       6.67321
_cell_length_b       6.67321
_cell_length_c       5.40161
_cell_angle_alpha    90
_cell_angle_beta     90
_cell_angle_gamma    132.387

_symmetry_Int_Tables_number  63
_chemical_formula_structural  SrNdNiO4
_chemical_formula_sum  Sr2Nd2Ni2O8
_cell_volume  177.66855821787834
_cell_formula_units_Z  2
loop_
  _symmetry_equiv_pos_site_id
 _symmetry_equiv_pos_as_xyz
 1  'x, y, z'
loop_
 _atom_site_type_symbol
 _atom_site_label
 _atom_site_symmetry_multiplicity
 _atom_site_fract_x
 _atom_site_fract_y
 _atom_site_fract_z
 _atom_site_fract_occupancy
 Nd  Nd1  1  0.38340  0.61660  0.75000  1
 Nd  Nd2  1  0.61660  0.38340  0.25000  1
 Ni  Ni1  1  0.25082  0.74918  0.25000  1
 Ni  Ni2  1  0.74918  0.25082  0.75000  1
 O  O1  1  0.57850  0.42150  0.75000  1
 O  O2  1  0.09202  0.90798  0.25000  1
 O  O3  1  0.42150  0.57850  0.25000  1
 O  O4  1  0.90798  0.09202  0.75000  1
 O  O5  1  -0.00000  0.50000  0.00000  1
 O  O6  1  0.50000  -0.00000  0.50000  1
 O  O7  1  -0.00000  0.50000  0.50000  1
 O  O8  1  0.50000  -0.00000  0.00000  1
 Sr  Sr1  1  0.89427  0.10573  0.25000  1
 Sr  Sr2  1  0.10573  0.89427  0.75000  1
