CIF file written using JARVIS-Tools package.
data_MgFeBO4
_symmetry_space_group_name_H-M  'Pnma'
_cell_length_a       3.0036
_cell_length_b       9.08525
_cell_length_c       9.31036
_cell_angle_alpha    90
_cell_angle_beta     90
_cell_angle_gamma    90

_symmetry_Int_Tables_number  62
_chemical_formula_structural  MgFeBO4
_chemical_formula_sum  Mg4Fe4B4O6
_cell_volume  254.06540634906386
_cell_formula_units_Z  4
loop_
  _symmetry_equiv_pos_site_id
 _symmetry_equiv_pos_as_xyz
 1  'x, y, z'
loop_
 _atom_site_type_symbol
 _atom_site_label
 _atom_site_symmetry_multiplicity
 _atom_site_fract_x
 _atom_site_fract_y
 _atom_site_fract_z
 _atom_site_fract_occupancy
 B  B1  1  0.75000  0.83068  0.36552  1
 B  B2  1  0.25000  0.66932  0.86552  1
 B  B3  1  0.75000  0.33068  0.13448  1
 B  B4  1  0.25000  0.16932  0.63448  1
 Fe  Fe1  1  0.25000  0.61344  0.55560  1
 Fe  Fe2  1  0.75000  0.38656  0.44440  1
 Fe  Fe3  1  0.75000  0.88656  0.05560  1
 Fe  Fe4  1  0.25000  0.11344  0.94440  1
 Mg  Mg1  1  0.25000  0.60773  0.17805  1
 Mg  Mg2  1  0.75000  0.89227  0.67805  1
 Mg  Mg3  1  0.75000  0.39227  0.82195  1
 Mg  Mg4  1  0.25000  0.10773  0.32195  1
 O  O1  1  0.75000  0.25805  0.26580  1
 O  O2  1  0.25000  0.75293  -0.00486  1
 O  O3  1  0.75000  0.97709  0.37447  1
 O  O4  1  0.75000  0.74707  0.49514  1
 O  O5  1  0.25000  0.25293  0.50486  1
 O  O6  1  0.25000  0.74195  0.73420  1
 O  O7  1  0.75000  0.24707  0.00486  1
 O  O8  1  0.25000  0.52291  0.87447  1
 O  O9  1  0.25000  0.00503  0.11589  1
 O  O10  1  0.75000  0.99497  0.88411  1
 O  O11  1  0.75000  0.49497  0.61589  1
 O  O12  1  0.25000  0.50503  0.38411  1
 O  O13  1  0.75000  0.75805  0.23420  1
 O  O14  1  0.75000  0.47709  0.12553  1
 O  O15  1  0.25000  0.24195  0.76580  1
 O  O16  1  0.25000  0.02291  0.62553  1
