CIF file written using JARVIS-Tools package.
data_LiTiCoF6
_symmetry_space_group_name_H-M  'P321'
_cell_length_a       8.62491
_cell_length_b       8.62491
_cell_length_c       4.59824
_cell_angle_alpha    90
_cell_angle_beta     90
_cell_angle_gamma    120

_symmetry_Int_Tables_number  150
_chemical_formula_structural  LiTiCoF6
_chemical_formula_sum  Li3Ti3Co3F8
_cell_volume  296.2315903511437
_cell_formula_units_Z  3
loop_
  _symmetry_equiv_pos_site_id
 _symmetry_equiv_pos_as_xyz
 1  'x, y, z'
loop_
 _atom_site_type_symbol
 _atom_site_label
 _atom_site_symmetry_multiplicity
 _atom_site_fract_x
 _atom_site_fract_y
 _atom_site_fract_z
 _atom_site_fract_occupancy
 Co  Co1  1  0.33333  0.66667  0.49767  1
 Co  Co2  1  0.66667  0.33333  0.50233  1
 Co  Co3  1  0.00000  0.00000  0.00000  1
 F  F1  1  0.43827  0.21063  0.24936  1
 F  F2  1  0.10387  0.54961  0.24756  1
 F  F3  1  0.45039  0.55426  0.24756  1
 F  F4  1  0.54961  0.10387  0.75244  1
 F  F5  1  0.44574  0.89613  0.24756  1
 F  F6  1  0.22764  0.78937  0.75064  1
 F  F7  1  0.89613  0.44574  0.75244  1
 F  F8  1  0.11317  0.23525  0.24408  1
 F  F9  1  0.55426  0.45039  0.75244  1
 F  F10  1  0.23525  0.11317  0.75592  1
 F  F11  1  0.87792  0.76475  0.75592  1
 F  F12  1  0.56173  0.77236  0.75064  1
 F  F13  1  0.76475  0.87792  0.24408  1
 F  F14  1  0.78937  0.22764  0.24936  1
 F  F15  1  0.21063  0.43827  0.75064  1
 F  F16  1  0.77236  0.56173  0.24936  1
 F  F17  1  0.12208  0.88683  0.24408  1
 F  F18  1  0.88683  0.12208  0.75592  1
 Li  Li1  1  0.31673  0.31673  0.50000  1
 Li  Li2  1  0.00000  0.68327  0.50000  1
 Li  Li3  1  0.68327  0.00000  0.50000  1
 Ti  Ti1  1  0.66112  0.66112  0.00000  1
 Ti  Ti2  1  -0.00000  0.33888  0.00000  1
 Ti  Ti3  1  0.33888  -0.00000  0.00000  1
