CIF file written using JARVIS-Tools package.
data_Sr3Sn2S7
_symmetry_space_group_name_H-M  'Pbam'
_cell_length_a       4.00907
_cell_length_b       11.5226
_cell_length_c       12.809
_cell_angle_alpha    90
_cell_angle_beta     90
_cell_angle_gamma    90

_symmetry_Int_Tables_number  55
_chemical_formula_structural  Sr3Sn2S7
_chemical_formula_sum  Sr6Sn4S4
_cell_volume  591.7119251839979
_cell_formula_units_Z  2
loop_
  _symmetry_equiv_pos_site_id
 _symmetry_equiv_pos_as_xyz
 1  'x, y, z'
loop_
 _atom_site_type_symbol
 _atom_site_label
 _atom_site_symmetry_multiplicity
 _atom_site_fract_x
 _atom_site_fract_y
 _atom_site_fract_z
 _atom_site_fract_occupancy
 S  S1  1  0.00000  0.20252  0.56954  1
 S  S2  1  0.50000  0.35266  0.29345  1
 S  S3  1  0.00000  0.00000  0.00000  1
 S  S4  1  0.50000  0.14734  0.79345  1
 S  S5  1  0.50000  0.85266  0.20655  1
 S  S6  1  0.00000  0.08074  0.32329  1
 S  S7  1  0.50000  0.64734  0.70655  1
 S  S8  1  0.00000  0.41926  0.82329  1
 S  S9  1  0.00000  0.58074  0.17671  1
 S  S10  1  0.00000  0.29748  0.06954  1
 S  S11  1  0.00000  0.70252  0.93046  1
 S  S12  1  0.00000  0.50000  0.50000  1
 S  S13  1  0.00000  0.79748  0.43046  1
 S  S14  1  0.00000  0.91926  0.67671  1
 Sn  Sn1  1  0.00000  0.78269  0.10589  1
 Sn  Sn2  1  0.00000  0.21731  0.89411  1
 Sn  Sn3  1  0.00000  0.71731  0.60589  1
 Sn  Sn4  1  0.00000  0.28269  0.39411  1
 Sr  Sr1  1  0.50000  0.50000  0.00000  1
 Sr  Sr2  1  0.50000  0.00000  0.50000  1
 Sr  Sr3  1  0.50000  0.61527  0.34935  1
 Sr  Sr4  1  0.50000  0.38473  0.65065  1
 Sr  Sr5  1  0.50000  0.88473  0.84935  1
 Sr  Sr6  1  0.50000  0.11527  0.15065  1
