CIF file written using JARVIS-Tools package.
data_LiMg4SnO8
_symmetry_space_group_name_H-M  'P6_3mc'
_cell_length_a       6.00949
_cell_length_b       6.00949
_cell_length_c       9.98741
_cell_angle_alpha    90
_cell_angle_beta     90
_cell_angle_gamma    120

_symmetry_Int_Tables_number  186
_chemical_formula_structural  LiMg4SnO8
_chemical_formula_sum  Li2Mg8Sn2O6
_cell_volume  312.36273329256585
_cell_formula_units_Z  2
loop_
  _symmetry_equiv_pos_site_id
 _symmetry_equiv_pos_as_xyz
 1  'x, y, z'
loop_
 _atom_site_type_symbol
 _atom_site_label
 _atom_site_symmetry_multiplicity
 _atom_site_fract_x
 _atom_site_fract_y
 _atom_site_fract_z
 _atom_site_fract_occupancy
 Li  Li1  1  0.00000  0.00000  0.82042  1
 Li  Li2  1  0.00000  0.00000  0.32042  1
 Mg  Mg1  1  0.33948  0.16974  0.60262  1
 Mg  Mg2  1  0.83026  0.16974  0.60262  1
 Mg  Mg3  1  0.16974  0.33948  0.10262  1
 Mg  Mg4  1  0.83026  0.66052  0.60262  1
 Mg  Mg5  1  0.16974  0.83026  0.10262  1
 Mg  Mg6  1  0.66052  0.83026  0.10262  1
 Mg  Mg7  1  0.66667  0.33333  0.91039  1
 Mg  Mg8  1  0.33333  0.66667  0.41039  1
 O  O1  1  0.48523  0.51477  0.96968  1
 O  O2  1  0.48523  0.97046  0.96968  1
 O  O3  1  0.00000  0.00000  0.00268  1
 O  O4  1  0.51477  0.02954  0.46968  1
 O  O5  1  0.02954  0.51477  0.96968  1
 O  O6  1  0.51477  0.48523  0.46968  1
 O  O7  1  0.97046  0.48523  0.46968  1
 O  O8  1  0.33333  0.66667  0.21383  1
 O  O9  1  0.32590  0.16295  0.21977  1
 O  O10  1  0.83705  0.67410  0.21977  1
 O  O11  1  0.67410  0.83705  0.71977  1
 O  O12  1  0.83705  0.16295  0.21977  1
 O  O13  1  0.66667  0.33333  0.71383  1
 O  O14  1  0.16295  0.32590  0.71977  1
 O  O15  1  0.16295  0.83705  0.71977  1
 O  O16  1  0.00000  0.00000  0.50268  1
 Sn  Sn1  1  0.33333  0.66667  0.82646  1
 Sn  Sn2  1  0.66667  0.33333  0.32646  1
