CIF file written using JARVIS-Tools package.
data_AsOsS
_symmetry_space_group_name_H-M  'P2_1/c'
_cell_length_a       5.98106
_cell_length_b       6.01807
_cell_length_c       6.06454
_cell_angle_alpha    68.6339
_cell_angle_beta     90
_cell_angle_gamma    90

_symmetry_Int_Tables_number  14
_chemical_formula_structural  AsOsS
_chemical_formula_sum  As4Os4S4
_cell_volume  203.28712610930032
_cell_formula_units_Z  4
loop_
  _symmetry_equiv_pos_site_id
 _symmetry_equiv_pos_as_xyz
 1  'x, y, z'
loop_
 _atom_site_type_symbol
 _atom_site_label
 _atom_site_symmetry_multiplicity
 _atom_site_fract_x
 _atom_site_fract_y
 _atom_site_fract_z
 _atom_site_fract_occupancy
 As  As1  1  0.87125  0.64835  0.62549  1
 As  As2  1  0.12875  0.35165  0.37451  1
 As  As3  1  0.37125  0.35165  0.87451  1
 As  As4  1  0.62875  0.64835  0.12549  1
 Os  Os1  1  0.49491  0.78317  0.70419  1
 Os  Os2  1  0.50509  0.21683  0.29581  1
 Os  Os3  1  0.99491  0.21683  0.79581  1
 Os  Os4  1  0.00509  0.78317  0.20419  1
 S  S1  1  0.12792  0.84393  0.81492  1
 S  S2  1  0.87208  0.15607  0.18508  1
 S  S3  1  0.62792  0.15607  0.68508  1
 S  S4  1  0.37208  0.84393  0.31492  1
