CIF file written using JARVIS-Tools package.
data_Ba3NdIr2O9
_symmetry_space_group_name_H-M  'C2/c'
_cell_length_a       5.98571
_cell_length_b       5.9857
_cell_length_c       14.945
_cell_angle_alpha    89.3244
_cell_angle_beta     89.3244
_cell_angle_gamma    119.87

_symmetry_Int_Tables_number  15
_chemical_formula_structural  Ba3NdIr2O9
_chemical_formula_sum  Ba6Nd2Ir4O8
_cell_volume  464.1975604838846
_cell_formula_units_Z  2
loop_
  _symmetry_equiv_pos_site_id
 _symmetry_equiv_pos_as_xyz
 1  'x, y, z'
loop_
 _atom_site_type_symbol
 _atom_site_label
 _atom_site_symmetry_multiplicity
 _atom_site_fract_x
 _atom_site_fract_y
 _atom_site_fract_z
 _atom_site_fract_occupancy
 Ba  Ba1  1  0.99725  0.00275  0.75000  1
 Ba  Ba2  1  0.00275  0.99725  0.25000  1
 Ba  Ba3  1  0.32803  0.66078  0.59672  1
 Ba  Ba4  1  0.67197  0.33922  0.40328  1
 Ba  Ba5  1  0.33922  0.67197  0.90328  1
 Ba  Ba6  1  0.66078  0.32803  0.09672  1
 Ir  Ir1  1  0.65455  0.32250  0.66601  1
 Ir  Ir2  1  0.34545  0.67750  0.33399  1
 Ir  Ir3  1  0.67750  0.34545  0.83399  1
 Ir  Ir4  1  0.32250  0.65455  0.16601  1
 Nd  Nd1  1  0.00000  0.00000  0.00000  1
 Nd  Nd2  1  0.00000  0.00000  0.50000  1
 O  O1  1  0.84595  0.66626  0.90218  1
 O  O2  1  0.80019  0.15392  0.59179  1
 O  O3  1  0.19981  0.84608  0.40821  1
 O  O4  1  0.98220  0.49523  0.74238  1
 O  O5  1  0.15392  0.80019  0.09179  1
 O  O6  1  0.33374  0.15405  0.59782  1
 O  O7  1  0.66626  0.84595  0.40218  1
 O  O8  1  0.84608  0.19981  0.90821  1
 O  O9  1  0.20168  0.38355  0.41962  1
 O  O10  1  0.49349  0.50651  0.25000  1
 O  O11  1  0.38355  0.20168  0.91962  1
 O  O12  1  0.61645  0.79832  0.08038  1
 O  O13  1  0.79832  0.61645  0.58038  1
 O  O14  1  0.15405  0.33374  0.09782  1
 O  O15  1  0.50477  0.01780  0.75762  1
 O  O16  1  0.49523  0.98220  0.24238  1
 O  O17  1  0.50651  0.49349  0.75000  1
 O  O18  1  0.01780  0.50477  0.25762  1
