CIF file written using JARVIS-Tools package.
data_RbBi4Se7
_symmetry_space_group_name_H-M  'C2/m'
_cell_length_a       11.657
_cell_length_b       11.657
_cell_length_c       19.4929
_cell_angle_alpha    57.3322
_cell_angle_beta     57.3321
_cell_angle_gamma    21.0004

_symmetry_Int_Tables_number  12
_chemical_formula_structural  RbBi4Se7
_chemical_formula_sum  Rb2Bi8Se4
_cell_volume  793.4403696626495
_cell_formula_units_Z  2
loop_
  _symmetry_equiv_pos_site_id
 _symmetry_equiv_pos_as_xyz
 1  'x, y, z'
loop_
 _atom_site_type_symbol
 _atom_site_label
 _atom_site_symmetry_multiplicity
 _atom_site_fract_x
 _atom_site_fract_y
 _atom_site_fract_z
 _atom_site_fract_occupancy
 Bi  Bi1  1  0.63576  0.63576  0.43366  1
 Bi  Bi2  1  0.36424  0.36424  0.56634  1
 Bi  Bi3  1  0.22228  0.22228  0.93321  1
 Bi  Bi4  1  0.77772  0.77772  0.06679  1
 Bi  Bi5  1  0.14945  0.14945  0.61444  1
 Bi  Bi6  1  0.85055  0.85055  0.38556  1
 Bi  Bi7  1  0.69781  0.69781  0.76999  1
 Bi  Bi8  1  0.30219  0.30219  0.23001  1
 Rb  Rb1  1  0.46364  0.46364  0.84071  1
 Rb  Rb2  1  0.53636  0.53636  0.15929  1
 Se  Se1  1  0.30094  0.30094  0.74034  1
 Se  Se2  1  0.04766  0.04766  0.42855  1
 Se  Se3  1  0.82850  0.82850  0.89995  1
 Se  Se4  1  0.17150  0.17150  0.10005  1
 Se  Se5  1  0.56138  0.56138  0.62205  1
 Se  Se6  1  0.69906  0.69906  0.25966  1
 Se  Se7  1  0.76440  0.76440  0.58063  1
 Se  Se8  1  0.89988  0.89988  0.21760  1
 Se  Se9  1  0.62790  0.62790  0.94386  1
 Se  Se10  1  0.37210  0.37210  0.05614  1
 Se  Se11  1  0.43862  0.43862  0.37795  1
 Se  Se12  1  0.23560  0.23560  0.41937  1
 Se  Se13  1  0.10012  0.10012  0.78240  1
 Se  Se14  1  0.95234  0.95234  0.57145  1
