CIF file written using JARVIS-Tools package.
data_ZnCuP2O7
_symmetry_space_group_name_H-M  'C2'
_cell_length_a       5.33592
_cell_length_b       5.33593
_cell_length_c       4.55742
_cell_angle_alpha    79.2286
_cell_angle_beta     79.2286
_cell_angle_gamma    101.546

_symmetry_Int_Tables_number  5
_chemical_formula_structural  ZnCuP2O7
_chemical_formula_sum  ZnCuP2O7
_cell_volume  121.45462380608643
_cell_formula_units_Z  1
loop_
  _symmetry_equiv_pos_site_id
 _symmetry_equiv_pos_as_xyz
 1  'x, y, z'
loop_
 _atom_site_type_symbol
 _atom_site_label
 _atom_site_symmetry_multiplicity
 _atom_site_fract_x
 _atom_site_fract_y
 _atom_site_fract_z
 _atom_site_fract_occupancy
 Cu  Cu1  1  0.69943  0.30057  0.50000  1
 O  O1  1  0.07333  0.36908  0.27896  1
 O  O2  1  0.36504  0.04588  0.27010  1
 O  O3  1  0.95412  0.63496  0.72990  1
 O  O4  1  0.63092  0.92667  0.72104  1
 O  O5  1  0.39225  0.37152  0.78212  1
 O  O6  1  0.62848  0.60775  0.21788  1
 O  O7  1  -0.01532  0.01532  0.00000  1
 P  P1  1  0.21275  0.20313  0.09202  1
 P  P2  1  0.79687  0.78725  0.90798  1
 Zn  Zn1  1  0.31892  0.68108  0.50000  1
