CIF file written using JARVIS-Tools package.
data_Pr3BiRu4O14
_symmetry_space_group_name_H-M  'R-3m'
_cell_length_a       7.4085
_cell_length_b       7.4085
_cell_length_c       7.34794
_cell_angle_alpha    90
_cell_angle_beta     59.727
_cell_angle_gamma    120

_symmetry_Int_Tables_number  166
_chemical_formula_structural  Pr3BiRu4O14
_chemical_formula_sum  Pr3BiRu4O4
_cell_volume  283.9925722439691
_cell_formula_units_Z  1
loop_
  _symmetry_equiv_pos_site_id
 _symmetry_equiv_pos_as_xyz
 1  'x, y, z'
loop_
 _atom_site_type_symbol
 _atom_site_label
 _atom_site_symmetry_multiplicity
 _atom_site_fract_x
 _atom_site_fract_y
 _atom_site_fract_z
 _atom_site_fract_occupancy
 Bi  Bi1  1  0.75000  0.37500  0.87500  1
 O  O1  1  0.00001  0.20431  0.20428  1
 O  O2  1  0.50009  0.25004  0.24987  1
 O  O3  1  0.99991  0.49996  0.50013  1
 O  O4  1  0.99588  0.79465  0.80288  1
 O  O5  1  0.49999  0.54569  0.54572  1
 O  O6  1  0.49999  0.95429  0.54572  1
 O  O7  1  0.90858  0.95429  0.54572  1
 O  O8  1  0.50412  0.95535  0.94712  1
 O  O9  1  0.50412  0.54876  0.94712  1
 O  O10  1  0.59142  0.79571  0.20428  1
 O  O11  1  0.99588  0.20124  0.80288  1
 O  O12  1  0.00001  0.79571  0.20428  1
 O  O13  1  0.40248  0.20124  0.80288  1
 O  O14  1  0.09752  0.54876  0.94712  1
 Pr  Pr1  1  0.75000  0.37500  0.37500  1
 Pr  Pr2  1  0.25000  0.87500  0.37500  1
 Pr  Pr3  1  0.25000  0.37500  0.37500  1
 Ru  Ru1  1  0.75000  0.87500  0.87500  1
 Ru  Ru2  1  0.25000  0.37500  0.87500  1
 Ru  Ru3  1  0.25000  0.87500  0.87500  1
 Ru  Ru4  1  0.75000  0.87500  0.37500  1
