CIF file written using JARVIS-Tools package.
data_Sm2Ga2Fe15C2
_symmetry_space_group_name_H-M  'Cm'
_cell_length_a       6.4483
_cell_length_b       6.4483
_cell_length_c       6.53204
_cell_angle_alpha    82.8904
_cell_angle_beta     82.8904
_cell_angle_gamma    83.2199

_symmetry_Int_Tables_number  8
_chemical_formula_structural  Sm2Ga2Fe15C2
_chemical_formula_sum  Sm2Ga2Fe5C2
_cell_volume  265.9856703148703
_cell_formula_units_Z  1
loop_
  _symmetry_equiv_pos_site_id
 _symmetry_equiv_pos_as_xyz
 1  'x, y, z'
loop_
 _atom_site_type_symbol
 _atom_site_label
 _atom_site_symmetry_multiplicity
 _atom_site_fract_x
 _atom_site_fract_y
 _atom_site_fract_z
 _atom_site_fract_occupancy
 C  C1  1  0.01388  0.51262  0.51055  1
 C  C2  1  0.51262  0.01388  0.51055  1
 Fe  Fe1  1  0.70915  0.99036  0.28575  1
 Fe  Fe2  1  0.09297  0.09297  0.09101  1
 Fe  Fe3  1  0.90238  0.90238  0.90682  1
 Fe  Fe4  1  0.28867  0.00556  0.71049  1
 Fe  Fe5  1  0.99036  0.70915  0.28575  1
 Fe  Fe6  1  0.72264  0.27691  0.99349  1
 Fe  Fe7  1  0.00556  0.28867  0.71049  1
 Fe  Fe8  1  0.27691  0.72264  0.99349  1
 Fe  Fe9  1  0.00308  0.49686  0.99957  1
 Fe  Fe10  1  0.99513  0.99513  0.51091  1
 Fe  Fe11  1  0.66337  0.66337  0.13181  1
 Fe  Fe12  1  0.65854  0.15283  0.66783  1
 Fe  Fe13  1  0.15283  0.65854  0.66783  1
 Fe  Fe14  1  0.34377  0.34377  0.85467  1
 Fe  Fe15  1  0.49686  0.00308  0.99957  1
 Ga  Ga1  1  0.83769  0.33665  0.33747  1
 Ga  Ga2  1  0.33665  0.83769  0.33747  1
 Sm  Sm1  1  0.65327  0.65327  0.67100  1
 Sm  Sm2  1  0.34368  0.34368  0.32345  1
