CIF file written using JARVIS-Tools package.
data_Cd2Mo3O8
_symmetry_space_group_name_H-M  'P6_3mc'
_cell_length_a       6.34202
_cell_length_b       6.34202
_cell_length_c       10.0849
_cell_angle_alpha    90
_cell_angle_beta     90
_cell_angle_gamma    120

_symmetry_Int_Tables_number  186
_chemical_formula_structural  Cd2Mo3O8
_chemical_formula_sum  Cd4Mo6O6
_cell_volume  351.28320794631117
_cell_formula_units_Z  2
loop_
  _symmetry_equiv_pos_site_id
 _symmetry_equiv_pos_as_xyz
 1  'x, y, z'
loop_
 _atom_site_type_symbol
 _atom_site_label
 _atom_site_symmetry_multiplicity
 _atom_site_fract_x
 _atom_site_fract_y
 _atom_site_fract_z
 _atom_site_fract_occupancy
 Cd  Cd1  1  0.66667  0.33333  0.96729  1
 Cd  Cd2  1  0.33333  0.66667  0.46729  1
 Cd  Cd3  1  0.66667  0.33333  0.35562  1
 Cd  Cd4  1  0.33333  0.66667  0.85562  1
 Mo  Mo1  1  0.16179  0.32358  0.14325  1
 Mo  Mo2  1  0.83821  0.16179  0.64325  1
 Mo  Mo3  1  0.83821  0.67642  0.64325  1
 Mo  Mo4  1  0.32358  0.16179  0.64325  1
 Mo  Mo5  1  0.67642  0.83821  0.14325  1
 Mo  Mo6  1  0.16179  0.83821  0.14325  1
 O  O1  1  0.04964  0.52482  0.03039  1
 O  O2  1  0.52482  0.04964  0.53039  1
 O  O3  1  0.52482  0.47518  0.53039  1
 O  O4  1  0.66667  0.33333  0.74503  1
 O  O5  1  0.95036  0.47518  0.53039  1
 O  O6  1  0.47518  0.52482  0.03039  1
 O  O7  1  0.47518  0.95036  0.03039  1
 O  O8  1  0.00000  0.00000  0.03582  1
 O  O9  1  0.67339  0.83670  0.72797  1
 O  O10  1  0.83670  0.16330  0.22797  1
 O  O11  1  0.32661  0.16330  0.22797  1
 O  O12  1  0.16330  0.32661  0.72797  1
 O  O13  1  0.00000  0.00000  0.53582  1
 O  O14  1  0.83670  0.67339  0.22797  1
 O  O15  1  0.16330  0.83670  0.72797  1
 O  O16  1  0.33333  0.66667  0.24503  1
