CIF file written using JARVIS-Tools package.
data_La3NbGa5O14
_symmetry_space_group_name_H-M  'P321'
_cell_length_a       8.29482
_cell_length_b       8.29482
_cell_length_c       5.23766
_cell_angle_alpha    90
_cell_angle_beta     90
_cell_angle_gamma    120

_symmetry_Int_Tables_number  150
_chemical_formula_structural  La3NbGa5O14
_chemical_formula_sum  La3NbGa5O4
_cell_volume  312.09137271515925
_cell_formula_units_Z  1
loop_
  _symmetry_equiv_pos_site_id
 _symmetry_equiv_pos_as_xyz
 1  'x, y, z'
loop_
 _atom_site_type_symbol
 _atom_site_label
 _atom_site_symmetry_multiplicity
 _atom_site_fract_x
 _atom_site_fract_y
 _atom_site_fract_z
 _atom_site_fract_occupancy
 Ga  Ga1  1  0.33333  0.66667  0.53091  1
 Ga  Ga2  1  0.66667  0.33333  0.46909  1
 Ga  Ga3  1  0.24408  0.00000  0.50000  1
 Ga  Ga4  1  0.00000  0.24408  0.50000  1
 Ga  Ga5  1  0.75592  0.75592  0.50000  1
 La  La1  1  0.57487  -0.00000  0.00000  1
 La  La2  1  -0.00000  0.57487  0.00000  1
 La  La3  1  0.42513  0.42513  0.00000  1
 Nb  Nb1  1  0.00000  0.00000  0.00000  1
 O  O1  1  0.14691  0.22418  0.24319  1
 O  O2  1  0.77582  0.92272  0.24319  1
 O  O3  1  0.31357  0.85525  0.70047  1
 O  O4  1  0.07728  0.85309  0.24319  1
 O  O5  1  0.92272  0.77582  0.75681  1
 O  O6  1  0.22418  0.14691  0.75681  1
 O  O7  1  0.85525  0.31357  0.29953  1
 O  O8  1  0.66667  0.33333  0.81818  1
 O  O9  1  0.45833  0.14475  0.29953  1
 O  O10  1  0.85309  0.07728  0.75681  1
 O  O11  1  0.14475  0.45833  0.70047  1
 O  O12  1  0.68643  0.54167  0.29953  1
 O  O13  1  0.33333  0.66667  0.18182  1
 O  O14  1  0.54167  0.68643  0.70047  1
