CIF file written using JARVIS-Tools package.
data_Mn2CrAs3
_symmetry_space_group_name_H-M  'Pm'
_cell_length_a       3.45319
_cell_length_b       5.57569
_cell_length_c       18.3126
_cell_angle_alpha    89.9285
_cell_angle_beta     90
_cell_angle_gamma    90

_symmetry_Int_Tables_number  6
_chemical_formula_structural  Mn2CrAs3
_chemical_formula_sum  Mn8Cr4As2
_cell_volume  352.58743286455365
_cell_formula_units_Z  4
loop_
  _symmetry_equiv_pos_site_id
 _symmetry_equiv_pos_as_xyz
 1  'x, y, z'
loop_
 _atom_site_type_symbol
 _atom_site_label
 _atom_site_symmetry_multiplicity
 _atom_site_fract_x
 _atom_site_fract_y
 _atom_site_fract_z
 _atom_site_fract_occupancy
 As  As1  1  0.00000  0.80020  0.14028  1
 As  As2  1  0.00000  0.29599  0.02811  1
 As  As3  1  0.00000  0.29680  0.36012  1
 As  As4  1  0.00000  0.29621  0.69257  1
 As  As5  1  0.50000  0.20194  0.19458  1
 As  As6  1  0.50000  0.20260  0.52679  1
 As  As7  1  0.50000  0.20286  0.86121  1
 As  As8  1  0.50000  0.70118  0.30559  1
 As  As9  1  0.50000  0.70414  0.63867  1
 As  As10  1  0.50000  0.70041  0.97362  1
 As  As11  1  0.00000  0.80119  0.47261  1
 As  As12  1  0.00000  0.79525  0.80690  1
 Cr  Cr1  1  0.50000  0.50339  0.43396  1
 Cr  Cr2  1  0.50000  0.00332  0.73251  1
 Cr  Cr3  1  0.50000  0.50284  0.10189  1
 Cr  Cr4  1  0.50000  0.50278  0.76745  1
 Mn  Mn1  1  0.00000  0.99718  0.26836  1
 Mn  Mn2  1  0.00000  0.99793  0.59947  1
 Mn  Mn3  1  0.00000  0.99656  0.93608  1
 Mn  Mn4  1  0.00000  0.49760  0.23167  1
 Mn  Mn5  1  0.00000  0.49886  0.56486  1
 Mn  Mn6  1  0.00000  0.49655  0.89977  1
 Mn  Mn7  1  0.50000  0.00176  0.06561  1
 Mn  Mn8  1  0.50000  0.00250  0.39732  1
