CIF file written using JARVIS-Tools package.
data_Tl2Pd9Pb
_symmetry_space_group_name_H-M  'I4mm'
_cell_length_a       12.243
_cell_length_b       12.243
_cell_length_c       12.243
_cell_angle_alpha    160.475
_cell_angle_beta     160.475
_cell_angle_gamma    27.7502

_symmetry_Int_Tables_number  107
_chemical_formula_structural  Tl2Pd9Pb
_chemical_formula_sum  Tl2Pd9Pb
_cell_volume  204.90647238786363
_cell_formula_units_Z  1
loop_
  _symmetry_equiv_pos_site_id
 _symmetry_equiv_pos_as_xyz
 1  'x, y, z'
loop_
 _atom_site_type_symbol
 _atom_site_label
 _atom_site_symmetry_multiplicity
 _atom_site_fract_x
 _atom_site_fract_y
 _atom_site_fract_z
 _atom_site_fract_occupancy
 Pb  Pb1  1  0.83397  0.83397  -0.00000  1
 Pd  Pd1  1  0.91612  0.41612  0.50000  1
 Pd  Pd2  1  0.41612  0.91612  0.50000  1
 Pd  Pd3  1  0.08435  0.58435  0.50000  1
 Pd  Pd4  1  0.58435  0.08435  0.50000  1
 Pd  Pd5  1  0.50017  0.50017  0.00000  1
 Pd  Pd6  1  0.74947  0.24947  0.50000  1
 Pd  Pd7  1  0.24947  0.74947  0.50000  1
 Pd  Pd8  1  0.33106  0.33106  -0.00000  1
 Pd  Pd9  1  0.66775  0.66775  0.00000  1
 Tl  Tl1  1  0.16617  0.16617  0.00000  1
 Tl  Tl2  1  0.00100  0.00100  -0.00000  1
