CIF file written using JARVIS-Tools package.
data_FeCoRh4S8
_symmetry_space_group_name_H-M  'F-43m'
_cell_length_a       6.83722
_cell_length_b       6.83722
_cell_length_c       6.83722
_cell_angle_alpha    90
_cell_angle_beta     60
_cell_angle_gamma    120

_symmetry_Int_Tables_number  216
_chemical_formula_structural  FeCoRh4S8
_chemical_formula_sum  FeCoRh4S8
_cell_volume  226.00783531325425
_cell_formula_units_Z  1
loop_
  _symmetry_equiv_pos_site_id
 _symmetry_equiv_pos_as_xyz
 1  'x, y, z'
loop_
 _atom_site_type_symbol
 _atom_site_label
 _atom_site_symmetry_multiplicity
 _atom_site_fract_x
 _atom_site_fract_y
 _atom_site_fract_z
 _atom_site_fract_occupancy
 Co  Co1  1  0.00000  0.00000  0.00000  1
 Fe  Fe1  1  0.50000  0.75000  0.75000  1
 Rh  Rh1  1  0.75143  0.37571  0.87286  1
 Rh  Rh2  1  0.24857  0.37571  0.37571  1
 Rh  Rh3  1  0.24857  0.87286  0.37571  1
 Rh  Rh4  1  0.75143  0.37571  0.37571  1
 S  S1  1  0.25588  0.12794  0.61618  1
 S  S2  1  0.74412  0.12794  0.12794  1
 S  S3  1  0.74412  0.61618  0.12794  1
 S  S4  1  0.25588  0.12794  0.12794  1
 S  S5  1  0.24778  0.62389  0.12833  1
 S  S6  1  0.75222  0.62389  0.62389  1
 S  S7  1  0.75222  0.12833  0.62389  1
 S  S8  1  0.24778  0.62389  0.62389  1
