CIF file written using JARVIS-Tools package.
data_ZnCr2Se2S2
_symmetry_space_group_name_H-M  'F-43m'
_cell_length_a       7.28584
_cell_length_b       7.28584
_cell_length_c       7.28584
_cell_angle_alpha    60
_cell_angle_beta     60
_cell_angle_gamma    60

_symmetry_Int_Tables_number  216
_chemical_formula_structural  ZnCr2Se2S2
_chemical_formula_sum  Zn2Cr4Se4S4
_cell_volume  273.4788093221252
_cell_formula_units_Z  2
loop_
  _symmetry_equiv_pos_site_id
 _symmetry_equiv_pos_as_xyz
 1  'x, y, z'
loop_
 _atom_site_type_symbol
 _atom_site_label
 _atom_site_symmetry_multiplicity
 _atom_site_fract_x
 _atom_site_fract_y
 _atom_site_fract_z
 _atom_site_fract_occupancy
 Cr  Cr1  1  0.63803  0.12066  0.12066  1
 Cr  Cr2  1  0.12066  0.63803  0.12066  1
 Cr  Cr3  1  0.12066  0.12066  0.63803  1
 Cr  Cr4  1  0.12066  0.12066  0.12066  1
 S  S1  1  0.34340  0.88553  0.88553  1
 S  S2  1  0.88553  0.34340  0.88553  1
 S  S3  1  0.88553  0.88553  0.34340  1
 S  S4  1  0.88553  0.88553  0.88553  1
 Se  Se1  1  0.90576  0.36475  0.36475  1
 Se  Se2  1  0.36475  0.90576  0.36475  1
 Se  Se3  1  0.36475  0.36475  0.90576  1
 Se  Se4  1  0.36475  0.36475  0.36475  1
 Zn  Zn1  1  0.75000  0.75000  0.75000  1
 Zn  Zn2  1  0.50000  0.50000  0.50000  1
