CIF file written using JARVIS-Tools package.
data_Ho6AgGe2S14
_symmetry_space_group_name_H-M  'P3'
_cell_length_a       9.76607
_cell_length_b       9.76606
_cell_length_c       5.8102
_cell_angle_alpha    90
_cell_angle_beta     90
_cell_angle_gamma    120

_symmetry_Int_Tables_number  143
_chemical_formula_structural  Ho6AgGe2S14
_chemical_formula_sum  Ho6AgGe2S4
_cell_volume  479.9115153187351
_cell_formula_units_Z  1
loop_
  _symmetry_equiv_pos_site_id
 _symmetry_equiv_pos_as_xyz
 1  'x, y, z'
loop_
 _atom_site_type_symbol
 _atom_site_label
 _atom_site_symmetry_multiplicity
 _atom_site_fract_x
 _atom_site_fract_y
 _atom_site_fract_z
 _atom_site_fract_occupancy
 Ag  Ag1  1  0.33333  0.66667  0.45448  1
 Ge  Ge1  1  0.66667  0.33333  0.81838  1
 Ge  Ge2  1  0.00000  0.00000  0.32456  1
 Ho  Ho1  1  0.69041  0.88553  0.74438  1
 Ho  Ho2  1  0.19512  0.30959  0.74438  1
 Ho  Ho3  1  0.11447  0.80488  0.74438  1
 Ho  Ho4  1  0.97542  0.44613  0.24317  1
 Ho  Ho5  1  0.47071  0.02458  0.24317  1
 Ho  Ho6  1  0.55387  0.52929  0.24317  1
 S  S1  1  0.59558  0.82628  0.20176  1
 S  S2  1  0.23070  0.40442  0.20176  1
 S  S3  1  0.66667  0.33333  0.43792  1
 S  S4  1  0.07077  0.50962  0.69753  1
 S  S5  1  0.43885  0.92923  0.69753  1
 S  S6  1  0.17372  0.76930  0.20176  1
 S  S7  1  0.81356  0.57237  0.98261  1
 S  S8  1  0.90738  0.14648  0.48776  1
 S  S9  1  0.23910  0.09262  0.48776  1
 S  S10  1  0.49038  0.56115  0.69753  1
 S  S11  1  0.75881  0.18644  0.98261  1
 S  S12  1  0.42763  0.24119  0.98261  1
 S  S13  1  0.85352  0.76090  0.48776  1
 S  S14  1  0.00000  0.00000  0.94356  1
