CIF file written using JARVIS-Tools package.
data_K3Ti8O17
_symmetry_space_group_name_H-M  'Cm'
_cell_length_a       8.03932
_cell_length_b       8.03931
_cell_length_c       12.1155
_cell_angle_alpha    85.108
_cell_angle_beta     85.108
_cell_angle_gamma    27.6058

_symmetry_Int_Tables_number  8
_chemical_formula_structural  K3Ti8O17
_chemical_formula_sum  K3Ti8O7
_cell_volume  361.44355181788086
_cell_formula_units_Z  1
loop_
  _symmetry_equiv_pos_site_id
 _symmetry_equiv_pos_as_xyz
 1  'x, y, z'
loop_
 _atom_site_type_symbol
 _atom_site_label
 _atom_site_symmetry_multiplicity
 _atom_site_fract_x
 _atom_site_fract_y
 _atom_site_fract_z
 _atom_site_fract_occupancy
 K  K1  1  0.55793  0.55793  0.16423  1
 K  K2  1  0.44262  0.44262  0.82087  1
 K  K3  1  0.51083  0.51083  0.45518  1
 O  O1  1  0.82770  0.82770  0.93814  1
 O  O2  1  0.17237  0.17237  0.06323  1
 O  O3  1  0.94041  0.94041  0.22697  1
 O  O4  1  0.27421  0.27421  0.56824  1
 O  O5  1  0.63510  0.63510  0.91331  1
 O  O6  1  0.36488  0.36488  0.09041  1
 O  O7  1  0.68473  0.68473  0.67593  1
 O  O8  1  0.72564  0.72564  0.43360  1
 O  O9  1  0.89405  0.89405  0.46489  1
 O  O10  1  -0.00016  -0.00016  0.00067  1
 O  O11  1  0.85026  0.85026  0.71091  1
 O  O12  1  0.77205  0.77205  0.18581  1
 O  O13  1  0.31604  0.31604  0.32574  1
 O  O14  1  0.22774  0.22774  0.81613  1
 O  O15  1  0.10596  0.10596  0.53517  1
 O  O16  1  0.14863  0.14863  0.29304  1
 O  O17  1  0.06160  0.06160  0.77704  1
 Ti  Ti1  1  0.24314  0.24314  0.17075  1
 Ti  Ti2  1  0.84898  0.84898  0.32457  1
 Ti  Ti3  1  0.15031  0.15031  0.67432  1
 Ti  Ti4  1  0.75588  0.75588  0.83065  1
 Ti  Ti5  1  0.11109  0.11109  0.92863  1
 Ti  Ti6  1  0.88781  0.88781  0.07023  1
 Ti  Ti7  1  0.80407  0.80407  0.57895  1
 Ti  Ti8  1  0.19903  0.19903  0.42342  1
