CIF file written using JARVIS-Tools package.
data_Zr2CrFe3
_symmetry_space_group_name_H-M  'Amm2'
_cell_length_a       4.92423
_cell_length_b       4.92348
_cell_length_c       8.20623
_cell_angle_alpha    90
_cell_angle_beta     90
_cell_angle_gamma    121.542

_symmetry_Int_Tables_number  38
_chemical_formula_structural  Zr2CrFe3
_chemical_formula_sum  Zr4Cr2Fe6
_cell_volume  169.5603397338439
_cell_formula_units_Z  2
loop_
  _symmetry_equiv_pos_site_id
 _symmetry_equiv_pos_as_xyz
 1  'x, y, z'
loop_
 _atom_site_type_symbol
 _atom_site_label
 _atom_site_symmetry_multiplicity
 _atom_site_fract_x
 _atom_site_fract_y
 _atom_site_fract_z
 _atom_site_fract_occupancy
 Cr  Cr1  1  0.83107  0.66836  0.00000  1
 Cr  Cr2  1  0.33174  0.16899  0.00000  1
 Fe  Fe1  1  0.82290  0.17701  0.00000  1
 Fe  Fe2  1  0.16749  0.33309  0.50000  1
 Fe  Fe3  1  0.66678  0.83245  0.50000  1
 Fe  Fe4  1  0.16931  0.83067  0.50000  1
 Fe  Fe5  1  0.00349  -0.00351  0.25059  1
 Fe  Fe6  1  0.00349  -0.00351  0.74941  1
 Zr  Zr1  1  0.33525  0.66472  0.18951  1
 Zr  Zr2  1  0.66648  0.33356  0.31580  1
 Zr  Zr3  1  0.66648  0.33356  0.68420  1
 Zr  Zr4  1  0.33525  0.66472  0.81049  1
