CIF file written using JARVIS-Tools package.
data_Cd3In2Se6
_symmetry_space_group_name_H-M  'R3'
_cell_length_a       8.14104
_cell_length_b       8.14104
_cell_length_c       8.14104
_cell_angle_alpha    53.9096
_cell_angle_beta     53.9096
_cell_angle_gamma    53.9096

_symmetry_Int_Tables_number  146
_chemical_formula_structural  Cd3In2Se6
_chemical_formula_sum  Cd3In2Se6
_cell_volume  327.2337683536344
_cell_formula_units_Z  1
loop_
  _symmetry_equiv_pos_site_id
 _symmetry_equiv_pos_as_xyz
 1  'x, y, z'
loop_
 _atom_site_type_symbol
 _atom_site_label
 _atom_site_symmetry_multiplicity
 _atom_site_fract_x
 _atom_site_fract_y
 _atom_site_fract_z
 _atom_site_fract_occupancy
 Cd  Cd1  1  0.16359  0.47058  0.86181  1
 Cd  Cd2  1  0.47058  0.86181  0.16359  1
 Cd  Cd3  1  0.86181  0.16359  0.47058  1
 In  In1  1  0.66743  0.66743  0.66743  1
 In  In2  1  -0.00038  -0.00038  -0.00038  1
 Se  Se1  1  0.05920  0.36903  0.68295  1
 Se  Se2  1  0.36903  0.68295  0.05920  1
 Se  Se3  1  0.68295  0.05920  0.36903  1
 Se  Se4  1  0.87259  0.87259  0.87259  1
 Se  Se5  1  0.22806  0.22806  0.22806  1
 Se  Se6  1  0.54013  0.54013  0.54013  1
