CIF file written using JARVIS-Tools package.
data_Sr3PrMn4O12
_symmetry_space_group_name_H-M  'Im-3m'
_cell_length_a       6.64829
_cell_length_b       6.6483
_cell_length_c       6.6483
_cell_angle_alpha    109.471
_cell_angle_beta     109.471
_cell_angle_gamma    109.471

_symmetry_Int_Tables_number  229
_chemical_formula_structural  Sr3PrMn4O12
_chemical_formula_sum  Sr3PrMn4O2
_cell_volume  226.20866819414286
_cell_formula_units_Z  1
loop_
  _symmetry_equiv_pos_site_id
 _symmetry_equiv_pos_as_xyz
 1  'x, y, z'
loop_
 _atom_site_type_symbol
 _atom_site_label
 _atom_site_symmetry_multiplicity
 _atom_site_fract_x
 _atom_site_fract_y
 _atom_site_fract_z
 _atom_site_fract_occupancy
 Mn  Mn1  1  0.00000  0.00000  0.50000  1
 Mn  Mn2  1  0.50000  0.50000  0.50000  1
 Mn  Mn3  1  0.50000  0.00000  -0.00000  1
 Mn  Mn4  1  -0.00000  0.50000  0.00000  1
 O  O1  1  0.75425  0.75425  0.50850  1
 O  O2  1  0.49150  0.24575  0.24575  1
 O  O3  1  0.24575  0.75425  -0.00000  1
 O  O4  1  -0.00000  0.24575  0.75425  1
 O  O5  1  0.50850  0.75425  0.75425  1
 O  O6  1  -0.00000  0.75425  0.24575  1
 O  O7  1  0.24575  0.00000  0.75425  1
 O  O8  1  0.75425  0.24575  -0.00000  1
 O  O9  1  0.75425  0.00000  0.24575  1
 O  O10  1  0.75425  0.50850  0.75425  1
 O  O11  1  0.24575  0.24575  0.49150  1
 O  O12  1  0.24575  0.49150  0.24575  1
 Pr  Pr1  1  0.00000  0.00000  0.00000  1
 Sr  Sr1  1  0.50000  0.00000  0.50000  1
 Sr  Sr2  1  -0.00000  0.50000  0.50000  1
 Sr  Sr3  1  0.50000  0.50000  -0.00000  1
