CIF file written using JARVIS-Tools package.
data_AlV12Sn3
_symmetry_space_group_name_H-M  'Pmmm'
_cell_length_a       4.92122
_cell_length_b       4.91552
_cell_length_c       9.82239
_cell_angle_alpha    90
_cell_angle_beta     90
_cell_angle_gamma    90

_symmetry_Int_Tables_number  47
_chemical_formula_structural  AlV12Sn3
_chemical_formula_sum  AlV2Sn3
_cell_volume  237.60727250334756
_cell_formula_units_Z  1
loop_
  _symmetry_equiv_pos_site_id
 _symmetry_equiv_pos_as_xyz
 1  'x, y, z'
loop_
 _atom_site_type_symbol
 _atom_site_label
 _atom_site_symmetry_multiplicity
 _atom_site_fract_x
 _atom_site_fract_y
 _atom_site_fract_z
 _atom_site_fract_occupancy
 Al  Al1  1  0.50000  0.50000  0.50000  1
 Sn  Sn1  1  0.50000  0.50000  0.00000  1
 Sn  Sn2  1  0.00000  0.00000  0.25161  1
 Sn  Sn3  1  0.00000  0.00000  0.74839  1
 V  V1  1  0.50000  0.00000  0.61734  1
 V  V2  1  0.50000  0.00000  0.12589  1
 V  V3  1  0.74203  0.50000  0.25889  1
 V  V4  1  0.74203  0.50000  0.74111  1
 V  V5  1  0.00000  0.73075  0.50000  1
 V  V6  1  0.00000  0.75362  0.00000  1
 V  V7  1  0.50000  0.00000  0.38266  1
 V  V8  1  0.50000  0.00000  0.87411  1
 V  V9  1  0.25797  0.50000  0.25889  1
 V  V10  1  0.25797  0.50000  0.74111  1
 V  V11  1  0.00000  0.26925  0.50000  1
 V  V12  1  0.00000  0.24638  0.00000  1
