CIF file written using JARVIS-Tools package.
data_Tb10Si3Sb3
_symmetry_space_group_name_H-M  'P-62m'
_cell_length_a       8.74292
_cell_length_b       8.74292
_cell_length_c       6.34896
_cell_angle_alpha    90
_cell_angle_beta     90
_cell_angle_gamma    120

_symmetry_Int_Tables_number  189
_chemical_formula_structural  Tb10Si3Sb3
_chemical_formula_sum  Tb0Si3Sb3
_cell_volume  420.28694783652065
_cell_formula_units_Z  1
loop_
  _symmetry_equiv_pos_site_id
 _symmetry_equiv_pos_as_xyz
 1  'x, y, z'
loop_
 _atom_site_type_symbol
 _atom_site_label
 _atom_site_symmetry_multiplicity
 _atom_site_fract_x
 _atom_site_fract_y
 _atom_site_fract_z
 _atom_site_fract_occupancy
 Sb  Sb1  1  0.39432  -0.00000  0.00000  1
 Sb  Sb2  1  -0.00000  0.39432  0.00000  1
 Sb  Sb3  1  0.60568  0.60568  0.00000  1
 Si  Si1  1  0.61193  0.00000  0.50000  1
 Si  Si2  1  0.00000  0.61193  0.50000  1
 Si  Si3  1  0.38807  0.38807  0.50000  1
 Tb  Tb1  1  0.75777  0.00000  0.00000  1
 Tb  Tb2  1  0.00000  0.75777  0.00000  1
 Tb  Tb3  1  0.24223  0.24223  0.00000  1
 Tb  Tb4  1  0.24400  0.00000  0.50000  1
 Tb  Tb5  1  0.00000  0.24400  0.50000  1
 Tb  Tb6  1  0.75600  0.75600  0.50000  1
 Tb  Tb7  1  0.33333  0.66667  0.26010  1
 Tb  Tb8  1  0.66667  0.33333  0.26010  1
 Tb  Tb9  1  0.66667  0.33333  0.73990  1
 Tb  Tb10  1  0.33333  0.66667  0.73990  1
