CIF file written using JARVIS-Tools package.
data_CdPdF4
_symmetry_space_group_name_H-M  'P2_1/c'
_cell_length_a       5.45014
_cell_length_b       5.45442
_cell_length_c       5.48245
_cell_angle_alpha    88.6791
_cell_angle_beta     90
_cell_angle_gamma    90

_symmetry_Int_Tables_number  14
_chemical_formula_structural  CdPdF4
_chemical_formula_sum  Cd2Pd2F8
_cell_volume  162.9353302035582
_cell_formula_units_Z  2
loop_
  _symmetry_equiv_pos_site_id
 _symmetry_equiv_pos_as_xyz
 1  'x, y, z'
loop_
 _atom_site_type_symbol
 _atom_site_label
 _atom_site_symmetry_multiplicity
 _atom_site_fract_x
 _atom_site_fract_y
 _atom_site_fract_z
 _atom_site_fract_occupancy
 Cd  Cd1  1  0.50000  -0.00000  0.50000  1
 Cd  Cd2  1  0.00000  0.50000  0.50000  1
 F  F1  1  0.83193  0.67291  0.83952  1
 F  F2  1  0.33193  0.82709  0.16048  1
 F  F3  1  0.15427  0.14907  0.66079  1
 F  F4  1  0.65427  0.35093  0.33921  1
 F  F5  1  0.16807  0.32709  0.16048  1
 F  F6  1  0.66807  0.17291  0.83952  1
 F  F7  1  0.84573  0.85093  0.33921  1
 F  F8  1  0.34573  0.64907  0.66079  1
 Pd  Pd1  1  0.50000  0.50000  0.00000  1
 Pd  Pd2  1  0.00000  0.00000  0.00000  1
