CIF file written using JARVIS-Tools package.
data_Sm3MgTi4O14
_symmetry_space_group_name_H-M  'R-3m'
_cell_length_a       7.14488
_cell_length_b       7.14487
_cell_length_c       7.14487
_cell_angle_alpha    61.1758
_cell_angle_beta     61.1758
_cell_angle_gamma    61.1758

_symmetry_Int_Tables_number  166
_chemical_formula_structural  Sm3MgTi4O14
_chemical_formula_sum  Sm3MgTi4O4
_cell_volume  264.7327712598726
_cell_formula_units_Z  1
loop_
  _symmetry_equiv_pos_site_id
 _symmetry_equiv_pos_as_xyz
 1  'x, y, z'
loop_
 _atom_site_type_symbol
 _atom_site_label
 _atom_site_symmetry_multiplicity
 _atom_site_fract_x
 _atom_site_fract_y
 _atom_site_fract_z
 _atom_site_fract_occupancy
 Mg  Mg1  1  0.50000  0.50000  0.50000  1
 O  O1  1  0.08002  0.08002  0.67192  1
 O  O2  1  0.92944  0.32230  0.32230  1
 O  O3  1  0.32808  0.91998  0.91998  1
 O  O4  1  0.38597  0.38597  0.38597  1
 O  O5  1  0.91998  0.91998  0.32808  1
 O  O6  1  0.91998  0.32808  0.91998  1
 O  O7  1  0.32230  0.32230  0.92944  1
 O  O8  1  0.07056  0.67770  0.67770  1
 O  O9  1  0.67192  0.08002  0.08002  1
 O  O10  1  0.67770  0.67770  0.07056  1
 O  O11  1  0.61403  0.61403  0.61403  1
 O  O12  1  0.08002  0.67192  0.08002  1
 O  O13  1  0.67770  0.07056  0.67770  1
 O  O14  1  0.32230  0.92944  0.32230  1
 Sm  Sm1  1  0.50000  -0.00000  0.50000  1
 Sm  Sm2  1  0.50000  0.50000  0.00000  1
 Sm  Sm3  1  0.00000  0.50000  0.50000  1
 Ti  Ti1  1  0.00000  0.50000  0.00000  1
 Ti  Ti2  1  0.00000  0.00000  0.50000  1
 Ti  Ti3  1  0.50000  -0.00000  0.00000  1
 Ti  Ti4  1  0.00000  0.00000  0.00000  1
