CIF file written using JARVIS-Tools package.
data_SrFe3Bi2O9
_symmetry_space_group_name_H-M  'P-3m1'
_cell_length_a       5.44398
_cell_length_b       5.44398
_cell_length_c       6.6574
_cell_angle_alpha    90
_cell_angle_beta     90
_cell_angle_gamma    120

_symmetry_Int_Tables_number  164
_chemical_formula_structural  SrFe3Bi2O9
_chemical_formula_sum  SrFe3Bi2O9
_cell_volume  170.87060173175917
_cell_formula_units_Z  1
loop_
  _symmetry_equiv_pos_site_id
 _symmetry_equiv_pos_as_xyz
 1  'x, y, z'
loop_
 _atom_site_type_symbol
 _atom_site_label
 _atom_site_symmetry_multiplicity
 _atom_site_fract_x
 _atom_site_fract_y
 _atom_site_fract_z
 _atom_site_fract_occupancy
 Bi  Bi1  1  0.66667  0.33333  0.87200  1
 Bi  Bi2  1  0.33333  0.66667  0.12800  1
 Fe  Fe1  1  0.66667  0.33333  0.34989  1
 Fe  Fe2  1  0.33333  0.66667  0.65011  1
 Fe  Fe3  1  0.00000  0.00000  0.00000  1
 O  O1  1  0.82957  0.17043  0.15497  1
 O  O2  1  0.50000  0.50000  0.50000  1
 O  O3  1  0.17043  0.82957  0.84503  1
 O  O4  1  -0.00000  0.50000  0.50000  1
 O  O5  1  0.65915  0.82957  0.84503  1
 O  O6  1  0.34085  0.17043  0.15497  1
 O  O7  1  0.82957  0.65915  0.15497  1
 O  O8  1  0.50000  0.00000  0.50000  1
 O  O9  1  0.17043  0.34085  0.84503  1
 Sr  Sr1  1  0.00000  0.00000  0.50000  1
