CIF file written using JARVIS-Tools package.
data_Nb2Bi3Pb2ClO11
_symmetry_space_group_name_H-M  'P4/mmm'
_cell_length_a       3.93756
_cell_length_b       3.93756
_cell_length_c       19.4966
_cell_angle_alpha    90
_cell_angle_beta     90
_cell_angle_gamma    90

_symmetry_Int_Tables_number  123
_chemical_formula_structural  Nb2Bi3Pb2ClO11
_chemical_formula_sum  Nb2Bi3Pb2ClO
_cell_volume  302.2821257050221
_cell_formula_units_Z  1
loop_
  _symmetry_equiv_pos_site_id
 _symmetry_equiv_pos_as_xyz
 1  'x, y, z'
loop_
 _atom_site_type_symbol
 _atom_site_label
 _atom_site_symmetry_multiplicity
 _atom_site_fract_x
 _atom_site_fract_y
 _atom_site_fract_z
 _atom_site_fract_occupancy
 Bi  Bi1  1  0.00000  0.00000  0.00000  1
 Bi  Bi2  1  0.50000  0.50000  0.59984  1
 Bi  Bi3  1  0.50000  0.50000  0.40016  1
 Cl  Cl1  1  0.00000  0.00000  0.50000  1
 Nb  Nb1  1  0.50000  0.50000  0.88347  1
 Nb  Nb2  1  0.50000  0.50000  0.11653  1
 O  O1  1  0.50000  0.50000  0.79040  1
 O  O2  1  0.00000  0.50000  0.09457  1
 O  O3  1  0.50000  0.00000  0.65639  1
 O  O4  1  0.00000  0.50000  0.65639  1
 O  O5  1  0.50000  0.50000  0.20960  1
 O  O6  1  0.00000  0.50000  0.90543  1
 O  O7  1  0.50000  0.00000  0.90543  1
 O  O8  1  0.50000  0.00000  0.34361  1
 O  O9  1  0.50000  0.00000  0.09457  1
 O  O10  1  0.00000  0.50000  0.34361  1
 O  O11  1  0.50000  0.50000  0.00000  1
 Pb  Pb1  1  0.00000  0.00000  0.27144  1
 Pb  Pb2  1  0.00000  0.00000  0.72856  1
