CIF file written using JARVIS-Tools package.
data_Na3NiN2
_symmetry_space_group_name_H-M  'I4_1/amd'
_cell_length_a       8.3342
_cell_length_b       7.93273
_cell_length_c       12.328
_cell_angle_alpha    90
_cell_angle_beta     137.697
_cell_angle_gamma    118.419

_symmetry_Int_Tables_number  141
_chemical_formula_structural  Na3NiN2
_chemical_formula_sum  Na2Ni4N8
_cell_volume  387.8887853447892
_cell_formula_units_Z  4
loop_
  _symmetry_equiv_pos_site_id
 _symmetry_equiv_pos_as_xyz
 1  'x, y, z'
loop_
 _atom_site_type_symbol
 _atom_site_label
 _atom_site_symmetry_multiplicity
 _atom_site_fract_x
 _atom_site_fract_y
 _atom_site_fract_z
 _atom_site_fract_occupancy
 N  N1  1  -0.00000  0.21277  0.33555  1
 N  N2  1  0.00000  0.28723  0.91445  1
 N  N3  1  0.57445  0.78723  0.45167  1
 N  N4  1  0.42555  0.21277  0.87722  1
 N  N5  1  0.57445  0.28723  0.37278  1
 N  N6  1  0.42555  0.71277  0.79833  1
 N  N7  1  -0.00000  0.78723  0.33555  1
 N  N8  1  0.00000  0.71277  0.91445  1
 Na  Na1  1  0.00000  0.00000  0.88450  1
 Na  Na2  1  -0.00000  0.50000  0.36550  1
 Na  Na3  1  -0.00000  -0.00000  0.11550  1
 Na  Na4  1  0.58147  0.50000  0.54073  1
 Na  Na5  1  0.58147  0.58147  0.29073  1
 Na  Na6  1  0.58147  -0.00000  0.29073  1
 Na  Na7  1  0.41853  0.00000  0.70927  1
 Na  Na8  1  0.41853  0.91853  0.95927  1
 Na  Na9  1  0.58147  0.08147  0.54073  1
 Na  Na10  1  0.41853  0.41853  0.70927  1
 Na  Na11  1  0.00000  0.50000  0.13450  1
 Na  Na12  1  0.41853  0.50000  0.95927  1
 Ni  Ni1  1  -0.00000  0.50000  0.90980  1
 Ni  Ni2  1  0.00000  0.00000  0.34020  1
 Ni  Ni3  1  0.00000  0.50000  0.59020  1
 Ni  Ni4  1  -0.00000  -0.00000  0.65980  1
