CIF file written using JARVIS-Tools package.
data_NbW3S8
_symmetry_space_group_name_H-M  'Pmm2'
_cell_length_a       3.23707
_cell_length_b       5.61336
_cell_length_c       12.3809
_cell_angle_alpha    90
_cell_angle_beta     90
_cell_angle_gamma    90

_symmetry_Int_Tables_number  25
_chemical_formula_structural  NbW3S8
_chemical_formula_sum  NbW3S8
_cell_volume  224.97096088717066
_cell_formula_units_Z  1
loop_
  _symmetry_equiv_pos_site_id
 _symmetry_equiv_pos_as_xyz
 1  'x, y, z'
loop_
 _atom_site_type_symbol
 _atom_site_label
 _atom_site_symmetry_multiplicity
 _atom_site_fract_x
 _atom_site_fract_y
 _atom_site_fract_z
 _atom_site_fract_occupancy
 Nb  Nb1  1  0.50000  0.82889  0.50000  1
 S  S1  1  0.50000  0.83329  0.87397  1
 S  S2  1  0.00000  0.33331  0.87397  1
 S  S3  1  0.00000  0.66122  0.62947  1
 S  S4  1  0.50000  0.17244  0.62623  1
 S  S5  1  0.00000  0.66122  0.37053  1
 S  S6  1  0.50000  0.17244  0.37377  1
 S  S7  1  0.50000  0.83329  0.12603  1
 S  S8  1  0.00000  0.33331  0.12603  1
 W  W1  1  0.00000  0.33745  0.50000  1
 W  W2  1  0.00000  0.66655  0.00000  1
 W  W3  1  0.50000  0.16659  0.00000  1
