CIF file written using JARVIS-Tools package.
data_Mg2TiMn3S8
_symmetry_space_group_name_H-M  'R-3m'
_cell_length_a       7.28672
_cell_length_b       7.28695
_cell_length_c       7.28942
_cell_angle_alpha    59.9671
_cell_angle_beta     59.9728
_cell_angle_gamma    60.0157

_symmetry_Int_Tables_number  166
_chemical_formula_structural  Mg2TiMn3S8
_chemical_formula_sum  Mg2TiMn3S8
_cell_volume  273.5961196122092
_cell_formula_units_Z  1
loop_
  _symmetry_equiv_pos_site_id
 _symmetry_equiv_pos_as_xyz
 1  'x, y, z'
loop_
 _atom_site_type_symbol
 _atom_site_label
 _atom_site_symmetry_multiplicity
 _atom_site_fract_x
 _atom_site_fract_y
 _atom_site_fract_z
 _atom_site_fract_occupancy
 Mg  Mg1  1  0.87247  0.87244  0.87221  1
 Mg  Mg2  1  0.12753  0.12756  0.12779  1
 Mn  Mn1  1  0.50000  0.50000  0.00000  1
 Mn  Mn2  1  1.00000  0.49999  0.50001  1
 Mn  Mn3  1  0.50000  0.00000  0.50000  1
 S  S1  1  0.73695  0.73698  0.73668  1
 S  S2  1  0.26142  0.26153  0.71949  1
 S  S3  1  0.26147  0.71928  0.26158  1
 S  S4  1  0.71923  0.26146  0.26162  1
 S  S5  1  0.73852  0.28072  0.73842  1
 S  S6  1  0.28077  0.73855  0.73837  1
 S  S7  1  0.26305  0.26302  0.26332  1
 S  S8  1  0.73859  0.73847  0.28051  1
 Ti  Ti1  1  0.50000  0.50000  0.49999  1
