CIF file written using JARVIS-Tools package.
data_ZrCrAgS4
_symmetry_space_group_name_H-M  'P2_1/m'
_cell_length_a       14.0493
_cell_length_b       3.59364
_cell_length_c       6.17173
_cell_angle_alpha    90
_cell_angle_beta     116.543
_cell_angle_gamma    90

_symmetry_Int_Tables_number  11
_chemical_formula_structural  ZrCrAgS4
_chemical_formula_sum  Zr2Cr2Ag2S8
_cell_volume  278.7567775597264
_cell_formula_units_Z  2
loop_
  _symmetry_equiv_pos_site_id
 _symmetry_equiv_pos_as_xyz
 1  'x, y, z'
loop_
 _atom_site_type_symbol
 _atom_site_label
 _atom_site_symmetry_multiplicity
 _atom_site_fract_x
 _atom_site_fract_y
 _atom_site_fract_z
 _atom_site_fract_occupancy
 Ag  Ag1  1  0.01553  0.50000  0.50176  1
 Ag  Ag2  1  0.48447  0.00000  0.49824  1
 Cr  Cr1  1  0.24201  0.00000  0.22693  1
 Cr  Cr2  1  0.25799  0.50000  0.77307  1
 S  S1  1  0.14290  0.50000  0.97371  1
 S  S2  1  0.87360  0.50000  0.03877  1
 S  S3  1  0.62640  0.00000  0.96123  1
 S  S4  1  0.35710  0.00000  0.02629  1
 S  S5  1  0.15446  0.00000  0.48784  1
 S  S6  1  0.87108  0.00000  0.54101  1
 S  S7  1  0.62892  0.50000  0.45899  1
 S  S8  1  0.34554  0.50000  0.51216  1
 Zr  Zr1  1  0.75201  0.00000  0.75497  1
 Zr  Zr2  1  0.74799  0.50000  0.24503  1
