CIF file written using JARVIS-Tools package.
data_Rb12Sn2Sb6O
_symmetry_space_group_name_H-M  'P-3m1'
_cell_length_a       12.3923
_cell_length_b       12.3923
_cell_length_c       6.21528
_cell_angle_alpha    90
_cell_angle_beta     90
_cell_angle_gamma    120

_symmetry_Int_Tables_number  164
_chemical_formula_structural  Rb12Sn2Sb6O
_chemical_formula_sum  Rb2Sn2Sb6O
_cell_volume  826.5979775166505
_cell_formula_units_Z  1
loop_
  _symmetry_equiv_pos_site_id
 _symmetry_equiv_pos_as_xyz
 1  'x, y, z'
loop_
 _atom_site_type_symbol
 _atom_site_label
 _atom_site_symmetry_multiplicity
 _atom_site_fract_x
 _atom_site_fract_y
 _atom_site_fract_z
 _atom_site_fract_occupancy
 O  O1  1  0.00000  0.00000  0.50000  1
 Rb  Rb1  1  0.90856  0.45428  0.74988  1
 Rb  Rb2  1  0.09144  0.54572  0.25012  1
 Rb  Rb3  1  0.54572  0.45428  0.74988  1
 Rb  Rb4  1  0.54572  0.09144  0.74988  1
 Rb  Rb5  1  0.88874  0.77748  0.72822  1
 Rb  Rb6  1  0.45428  0.54572  0.25012  1
 Rb  Rb7  1  0.11126  0.22252  0.27178  1
 Rb  Rb8  1  0.77748  0.88874  0.27178  1
 Rb  Rb9  1  0.88874  0.11126  0.72822  1
 Rb  Rb10  1  0.22252  0.11126  0.72822  1
 Rb  Rb11  1  0.11126  0.88874  0.27178  1
 Rb  Rb12  1  0.45428  0.90856  0.25012  1
 Sb  Sb1  1  0.20499  0.40998  0.75890  1
 Sb  Sb2  1  0.59002  0.79501  0.75890  1
 Sb  Sb3  1  0.79501  0.20499  0.24110  1
 Sb  Sb4  1  0.79501  0.59002  0.24110  1
 Sb  Sb5  1  0.40998  0.20499  0.24110  1
 Sb  Sb6  1  0.20499  0.79501  0.75890  1
 Sn  Sn1  1  0.33333  0.66667  0.75228  1
 Sn  Sn2  1  0.66667  0.33333  0.24772  1
