CIF file written using JARVIS-Tools package.
data_SiNiW
_symmetry_space_group_name_H-M  'Amm2'
_cell_length_a       4.72353
_cell_length_b       4.72354
_cell_length_c       7.66324
_cell_angle_alpha    90
_cell_angle_beta     90
_cell_angle_gamma    118.127

_symmetry_Int_Tables_number  38
_chemical_formula_structural  SiNiW
_chemical_formula_sum  Si4Ni4W4
_cell_volume  150.7880660549855
_cell_formula_units_Z  4
loop_
  _symmetry_equiv_pos_site_id
 _symmetry_equiv_pos_as_xyz
 1  'x, y, z'
loop_
 _atom_site_type_symbol
 _atom_site_label
 _atom_site_symmetry_multiplicity
 _atom_site_fract_x
 _atom_site_fract_y
 _atom_site_fract_z
 _atom_site_fract_occupancy
 Ni  Ni1  1  0.16526  0.83474  0.50000  1
 Ni  Ni2  1  0.64986  0.83281  0.50000  1
 Ni  Ni3  1  0.16719  0.35014  0.50000  1
 Ni  Ni4  1  0.85218  0.14782  0.00000  1
 Si  Si1  1  0.35380  0.15846  0.00000  1
 Si  Si2  1  0.84154  0.64620  0.00000  1
 Si  Si3  1  0.98983  0.01017  0.27086  1
 Si  Si4  1  0.98983  0.01017  0.72914  1
 W  W1  1  0.33617  0.66383  0.81280  1
 W  W2  1  0.65913  0.34087  0.69152  1
 W  W3  1  0.65913  0.34087  0.30848  1
 W  W4  1  0.33617  0.66383  0.18720  1
