CIF file written using JARVIS-Tools package.
data_LiTiCrO4
_symmetry_space_group_name_H-M  'Pmc2_1'
_cell_length_a       4.95062
_cell_length_b       9.57174
_cell_length_c       5.92672
_cell_angle_alpha    90.0001
_cell_angle_beta     90
_cell_angle_gamma    90.0001

_symmetry_Int_Tables_number  26
_chemical_formula_structural  LiTiCrO4
_chemical_formula_sum  Li4Ti4Cr4O6
_cell_volume  280.84420494948944
_cell_formula_units_Z  4
loop_
  _symmetry_equiv_pos_site_id
 _symmetry_equiv_pos_as_xyz
 1  'x, y, z'
loop_
 _atom_site_type_symbol
 _atom_site_label
 _atom_site_symmetry_multiplicity
 _atom_site_fract_x
 _atom_site_fract_y
 _atom_site_fract_z
 _atom_site_fract_occupancy
 Cr  Cr1  1  0.00829  0.86204  0.87500  1
 Cr  Cr2  1  0.49171  0.36204  0.87500  1
 Cr  Cr3  1  0.00829  0.86204  0.37500  1
 Cr  Cr4  1  0.49171  0.36204  0.37500  1
 Li  Li1  1  0.55992  0.96691  0.12500  1
 Li  Li2  1  0.94008  0.46691  0.62500  1
 Li  Li3  1  0.94008  0.46691  0.12500  1
 Li  Li4  1  0.55992  0.96691  0.62500  1
 O  O1  1  0.29443  0.71440  0.37500  1
 O  O2  1  0.19061  0.95797  0.12500  1
 O  O3  1  0.19061  0.95797  0.62500  1
 O  O4  1  0.78862  0.03727  0.87500  1
 O  O5  1  0.71138  0.53727  0.37500  1
 O  O6  1  0.71138  0.53727  0.87500  1
 O  O7  1  0.30939  0.45797  0.62500  1
 O  O8  1  0.30939  0.45797  0.12500  1
 O  O9  1  0.77959  0.78507  0.12500  1
 O  O10  1  0.20557  0.21440  0.37500  1
 O  O11  1  0.72041  0.28507  0.12500  1
 O  O12  1  0.72041  0.28507  0.62500  1
 O  O13  1  0.78862  0.03727  0.37500  1
 O  O14  1  0.20557  0.21440  0.87500  1
 O  O15  1  0.77959  0.78507  0.62500  1
 O  O16  1  0.29443  0.71440  0.87500  1
 Ti  Ti1  1  0.99511  0.14333  0.62500  1
 Ti  Ti2  1  0.99511  0.14333  0.12500  1
 Ti  Ti3  1  0.50489  0.64333  0.62500  1
 Ti  Ti4  1  0.50489  0.64333  0.12500  1
