CIF file written using JARVIS-Tools package.
data_LaPr3Co8P8
_symmetry_space_group_name_H-M  'P4/mmm'
_cell_length_a       3.79999
_cell_length_b       3.79999
_cell_length_c       21.8807
_cell_angle_alpha    90
_cell_angle_beta     90
_cell_angle_gamma    90

_symmetry_Int_Tables_number  123
_chemical_formula_structural  LaPr3Co8P8
_chemical_formula_sum  LaPr3Co8P8
_cell_volume  315.95512284063904
_cell_formula_units_Z  1
loop_
  _symmetry_equiv_pos_site_id
 _symmetry_equiv_pos_as_xyz
 1  'x, y, z'
loop_
 _atom_site_type_symbol
 _atom_site_label
 _atom_site_symmetry_multiplicity
 _atom_site_fract_x
 _atom_site_fract_y
 _atom_site_fract_z
 _atom_site_fract_occupancy
 Co  Co1  1  0.50000  0.00000  0.37584  1
 Co  Co2  1  0.50000  0.00000  0.87248  1
 Co  Co3  1  0.00000  0.50000  0.12752  1
 Co  Co4  1  0.00000  0.50000  0.62416  1
 Co  Co5  1  0.00000  0.50000  0.87248  1
 Co  Co6  1  0.50000  0.00000  0.62416  1
 Co  Co7  1  0.50000  0.00000  0.12752  1
 Co  Co8  1  0.00000  0.50000  0.37584  1
 La  La1  1  0.00000  0.00000  0.00000  1
 P  P1  1  0.50000  0.50000  0.42859  1
 P  P2  1  0.00000  0.00000  0.67688  1
 P  P3  1  0.50000  0.50000  0.07484  1
 P  P4  1  0.00000  0.00000  0.32312  1
 P  P5  1  0.50000  0.50000  0.57141  1
 P  P6  1  0.00000  0.00000  0.81960  1
 P  P7  1  0.00000  0.00000  0.18040  1
 P  P8  1  0.50000  0.50000  0.92516  1
 Pr  Pr1  1  0.00000  0.00000  0.50000  1
 Pr  Pr2  1  0.50000  0.50000  0.25165  1
 Pr  Pr3  1  0.50000  0.50000  0.74835  1
