CIF file written using JARVIS-Tools package.
data_LaNi5H6
_symmetry_space_group_name_H-M  'P6mm'
_cell_length_a       5.44226
_cell_length_b       5.44226
_cell_length_c       4.04711
_cell_angle_alpha    90
_cell_angle_beta     90
_cell_angle_gamma    120

_symmetry_Int_Tables_number  183
_chemical_formula_structural  LaNi5H6
_chemical_formula_sum  LaNi5H6
_cell_volume  103.80863081158232
_cell_formula_units_Z  1
loop_
  _symmetry_equiv_pos_site_id
 _symmetry_equiv_pos_as_xyz
 1  'x, y, z'
loop_
 _atom_site_type_symbol
 _atom_site_label
 _atom_site_symmetry_multiplicity
 _atom_site_fract_x
 _atom_site_fract_y
 _atom_site_fract_z
 _atom_site_fract_occupancy
 H  H1  1  0.79552  0.20448  0.29153  1
 H  H2  1  0.40895  0.20448  0.29153  1
 H  H3  1  0.79552  0.59105  0.29153  1
 H  H4  1  0.20448  0.79552  0.29153  1
 H  H5  1  0.20448  0.40895  0.29153  1
 H  H6  1  0.59105  0.79552  0.29153  1
 La  La1  1  0.00000  0.00000  0.87855  1
 Ni  Ni1  1  0.66667  0.33333  0.99098  1
 Ni  Ni2  1  0.33333  0.66667  0.99098  1
 Ni  Ni3  1  0.50000  0.50000  0.50383  1
 Ni  Ni4  1  -0.00000  0.50000  0.50383  1
 Ni  Ni5  1  0.50000  0.00000  0.50383  1
