CIF file written using JARVIS-Tools package.
data_Co3O2F4
_symmetry_space_group_name_H-M  'P2_1/c'
_cell_length_a       4.48402
_cell_length_b       9.11933
_cell_length_c       4.48823
_cell_angle_alpha    89.8526
_cell_angle_beta     89.9998
_cell_angle_gamma    89.9998

_symmetry_Int_Tables_number  14
_chemical_formula_structural  Co3O2F4
_chemical_formula_sum  Co6O4F8
_cell_volume  183.52875436366526
_cell_formula_units_Z  2
loop_
  _symmetry_equiv_pos_site_id
 _symmetry_equiv_pos_as_xyz
 1  'x, y, z'
loop_
 _atom_site_type_symbol
 _atom_site_label
 _atom_site_symmetry_multiplicity
 _atom_site_fract_x
 _atom_site_fract_y
 _atom_site_fract_z
 _atom_site_fract_occupancy
 Co  Co1  1  0.03289  0.65900  0.03801  1
 Co  Co2  1  0.53289  0.50767  0.46199  1
 Co  Co3  1  -0.00001  0.33333  -0.00003  1
 Co  Co4  1  0.49999  0.83334  0.50003  1
 Co  Co5  1  0.96711  0.00766  0.96200  1
 Co  Co6  1  0.46711  0.15900  0.53799  1
 F  F1  1  0.80041  0.83958  0.19226  1
 F  F2  1  0.23594  0.49672  0.78335  1
 F  F3  1  0.73594  0.66994  0.71665  1
 F  F4  1  0.26406  -0.00327  0.28337  1
 F  F5  1  0.76406  0.16993  0.21663  1
 F  F6  1  0.19961  0.82708  0.80782  1
 F  F7  1  0.30041  0.32708  0.30774  1
 F  F8  1  0.69961  0.33958  0.69219  1
 O  O1  1  0.33500  0.66734  0.30721  1
 O  O2  1  0.66499  0.99932  0.69282  1
 O  O3  1  0.16499  0.16734  0.80718  1
 O  O4  1  0.83500  0.49932  0.19279  1
