CIF file written using JARVIS-Tools package.
data_Li2Mn3TeO8
_symmetry_space_group_name_H-M  'P-1'
_cell_length_a       5.76814
_cell_length_b       5.84923
_cell_length_c       11.4212
_cell_angle_alpha    90.0639
_cell_angle_beta     75.0667
_cell_angle_gamma    119.153

_symmetry_Int_Tables_number  2
_chemical_formula_structural  Li2Mn3TeO8
_chemical_formula_sum  Li4Mn6Te2O6
_cell_volume  321.60820310515345
_cell_formula_units_Z  2
loop_
  _symmetry_equiv_pos_site_id
 _symmetry_equiv_pos_as_xyz
 1  'x, y, z'
loop_
 _atom_site_type_symbol
 _atom_site_label
 _atom_site_symmetry_multiplicity
 _atom_site_fract_x
 _atom_site_fract_y
 _atom_site_fract_z
 _atom_site_fract_occupancy
 Li  Li1  1  0.88472  0.94032  0.16524  1
 Li  Li2  1  0.90263  0.43391  0.65293  1
 Li  Li3  1  0.09738  0.56610  0.34706  1
 Li  Li4  1  0.11528  0.05967  0.83477  1
 Mn  Mn1  1  0.50000  -0.00000  0.00000  1
 Mn  Mn2  1  0.50000  0.50000  0.50000  1
 Mn  Mn3  1  0.50000  0.50000  0.00000  1
 Mn  Mn4  1  -0.00000  -0.00000  0.50000  1
 Mn  Mn5  1  0.00000  0.50000  0.00000  1
 Mn  Mn6  1  0.50000  0.00000  0.50000  1
 O  O1  1  0.73176  0.36101  0.91188  1
 O  O2  1  0.72061  0.86325  0.41116  1
 O  O3  1  0.25516  0.39848  0.89480  1
 O  O4  1  0.26824  0.63899  0.08812  1
 O  O5  1  0.27939  0.13675  0.58883  1
 O  O6  1  0.73696  0.08325  0.61055  1
 O  O7  1  0.74484  0.60152  0.10520  1
 O  O8  1  0.71479  0.13568  0.14953  1
 O  O9  1  0.20913  0.36407  0.42486  1
 O  O10  1  0.72166  0.85732  0.91437  1
 O  O11  1  0.71009  0.39374  0.36922  1
 O  O12  1  0.28521  0.86432  0.85047  1
 O  O13  1  0.79087  0.63594  0.57514  1
 O  O14  1  0.28991  0.60626  0.63078  1
 O  O15  1  0.27834  0.14268  0.08563  1
 O  O16  1  0.26304  0.91675  0.38945  1
 Te  Te1  1  0.48601  0.25909  0.24984  1
 Te  Te2  1  0.51399  0.74091  0.75016  1
