CIF file written using JARVIS-Tools package.
data_NaMn2O4
_symmetry_space_group_name_H-M  'Fd-3m'
_cell_length_a       5.95186
_cell_length_b       5.94782
_cell_length_c       5.95261
_cell_angle_alpha    59.973
_cell_angle_beta     90.0006
_cell_angle_gamma    120.023

_symmetry_Int_Tables_number  227
_chemical_formula_structural  NaMn2O4
_chemical_formula_sum  Na2Mn4O8
_cell_volume  148.8943253637351
_cell_formula_units_Z  2
loop_
  _symmetry_equiv_pos_site_id
 _symmetry_equiv_pos_as_xyz
 1  'x, y, z'
loop_
 _atom_site_type_symbol
 _atom_site_label
 _atom_site_symmetry_multiplicity
 _atom_site_fract_x
 _atom_site_fract_y
 _atom_site_fract_z
 _atom_site_fract_occupancy
 Mn  Mn1  1  0.37500  0.25000  0.37500  1
 Mn  Mn2  1  0.87500  0.25000  0.37500  1
 Mn  Mn3  1  0.37500  0.75000  0.37500  1
 Mn  Mn4  1  0.37500  0.75000  0.87500  1
 Na  Na1  1  0.00003  0.00004  -0.00002  1
 Na  Na2  1  0.74998  0.49996  0.75002  1
 O  O1  1  0.14451  0.28903  0.14502  1
 O  O2  1  0.60548  0.21097  0.18404  1
 O  O3  1  0.56596  0.71097  0.14452  1
 O  O4  1  0.14500  0.71097  0.14452  1
 O  O5  1  0.60549  0.21097  0.60499  1
 O  O6  1  0.14452  0.28903  0.56596  1
 O  O7  1  0.60500  0.78904  0.60548  1
 O  O8  1  0.18403  0.78903  0.60548  1
