CIF file written using JARVIS-Tools package.
data_HoAl6Fe6
_symmetry_space_group_name_H-M  'Immm'
_cell_length_a       6.51552
_cell_length_b       6.51551
_cell_length_c       6.51551
_cell_angle_alpha    135.143
_cell_angle_beta     99.3027
_cell_angle_gamma    97.4398

_symmetry_Int_Tables_number  71
_chemical_formula_structural  HoAl6Fe6
_chemical_formula_sum  HoAl6Fe6
_cell_volume  180.30569025736503
_cell_formula_units_Z  1
loop_
  _symmetry_equiv_pos_site_id
 _symmetry_equiv_pos_as_xyz
 1  'x, y, z'
loop_
 _atom_site_type_symbol
 _atom_site_label
 _atom_site_symmetry_multiplicity
 _atom_site_fract_x
 _atom_site_fract_y
 _atom_site_fract_z
 _atom_site_fract_occupancy
 Al  Al1  1  0.34610  0.34610  0.00000  1
 Al  Al2  1  0.65390  0.65390  -0.00000  1
 Al  Al3  1  0.66267  0.00000  0.66267  1
 Al  Al4  1  0.33733  -0.00000  0.33733  1
 Al  Al5  1  0.80886  0.30886  0.50000  1
 Al  Al6  1  0.19114  0.69114  0.50000  1
 Fe  Fe1  1  0.50000  -0.00000  -0.00000  1
 Fe  Fe2  1  0.50000  0.50000  0.50000  1
 Fe  Fe3  1  -0.00000  0.00000  0.50000  1
 Fe  Fe4  1  0.00000  0.50000  0.00000  1
 Fe  Fe5  1  0.24024  0.50000  0.74024  1
 Fe  Fe6  1  0.75976  0.50000  0.25976  1
 Ho  Ho1  1  0.00000  0.00000  0.00000  1
