CIF file written using JARVIS-Tools package.
data_Li2CrO2
_symmetry_space_group_name_H-M  'Immm'
_cell_length_a       2.86838
_cell_length_b       7.46809
_cell_length_c       10.1508
_cell_angle_alpha    108.11
_cell_angle_beta     89.9997
_cell_angle_gamma    101.072

_symmetry_Int_Tables_number  71
_chemical_formula_structural  Li2CrO2
_chemical_formula_sum  Li8Cr4O8
_cell_volume  202.410306520384
_cell_formula_units_Z  4
loop_
  _symmetry_equiv_pos_site_id
 _symmetry_equiv_pos_as_xyz
 1  'x, y, z'
loop_
 _atom_site_type_symbol
 _atom_site_label
 _atom_site_symmetry_multiplicity
 _atom_site_fract_x
 _atom_site_fract_y
 _atom_site_fract_z
 _atom_site_fract_occupancy
 Cr  Cr1  1  -0.00001  -0.00000  0.00000  1
 Cr  Cr2  1  0.49999  -0.00001  0.50000  1
 Cr  Cr3  1  0.75002  0.50001  0.75000  1
 Cr  Cr4  1  0.25001  0.50001  0.25000  1
 Li  Li1  1  0.57306  0.14611  0.28083  1
 Li  Li2  1  0.32307  0.64612  0.03082  1
 Li  Li3  1  0.17693  0.35389  0.46917  1
 Li  Li4  1  0.82307  0.64612  0.53082  1
 Li  Li5  1  0.92693  0.85388  0.21917  1
 Li  Li6  1  0.67693  0.35389  0.96917  1
 Li  Li7  1  0.42693  0.85388  0.71918  1
 Li  Li8  1  0.07307  0.14611  0.78083  1
 O  O1  1  0.78648  0.57293  0.14059  1
 O  O2  1  0.71350  0.42706  0.35940  1
 O  O3  1  0.96352  0.92707  0.60941  1
 O  O4  1  0.21350  0.42706  0.85939  1
 O  O5  1  0.46352  0.92707  0.10941  1
 O  O6  1  0.28648  0.57293  0.64059  1
 O  O7  1  0.53650  0.07294  0.89061  1
 O  O8  1  0.03650  0.07294  0.39061  1
