CIF file written using JARVIS-Tools package.
data_TbMnO3
_symmetry_space_group_name_H-M  'Pnma'
_cell_length_a       5.28707
_cell_length_b       5.64726
_cell_length_c       7.58729
_cell_angle_alpha    90
_cell_angle_beta     90
_cell_angle_gamma    90

_symmetry_Int_Tables_number  62
_chemical_formula_structural  TbMnO3
_chemical_formula_sum  Tb4Mn4O2
_cell_volume  226.53741405742628
_cell_formula_units_Z  4
loop_
  _symmetry_equiv_pos_site_id
 _symmetry_equiv_pos_as_xyz
 1  'x, y, z'
loop_
 _atom_site_type_symbol
 _atom_site_label
 _atom_site_symmetry_multiplicity
 _atom_site_fract_x
 _atom_site_fract_y
 _atom_site_fract_z
 _atom_site_fract_occupancy
 Mn  Mn1  1  0.00000  0.50000  0.00000  1
 Mn  Mn2  1  0.50000  0.00000  0.50000  1
 Mn  Mn3  1  0.00000  0.50000  0.50000  1
 Mn  Mn4  1  0.50000  0.00000  0.00000  1
 O  O1  1  0.19690  0.19350  0.94667  1
 O  O2  1  0.39522  0.96752  0.25000  1
 O  O3  1  0.80310  0.80650  0.44667  1
 O  O4  1  0.60478  0.03248  0.75000  1
 O  O5  1  0.89522  0.53248  0.75000  1
 O  O6  1  0.10478  0.46752  0.25000  1
 O  O7  1  0.69690  0.30650  0.44667  1
 O  O8  1  0.69690  0.30650  0.05333  1
 O  O9  1  0.30310  0.69350  0.94667  1
 O  O10  1  0.80310  0.80650  0.05333  1
 O  O11  1  0.30310  0.69350  0.55333  1
 O  O12  1  0.19690  0.19350  0.55333  1
 Tb  Tb1  1  0.01845  0.92783  0.75000  1
 Tb  Tb2  1  0.48155  0.42783  0.75000  1
 Tb  Tb3  1  0.98155  0.07217  0.25000  1
 Tb  Tb4  1  0.51845  0.57217  0.25000  1
