CIF file written using JARVIS-Tools package.
data_Mn2OF4
_symmetry_space_group_name_H-M  'Cmc2_1'
_cell_length_a       4.90878
_cell_length_b       4.90878
_cell_length_c       12.0413
_cell_angle_alpha    90
_cell_angle_beta     90
_cell_angle_gamma    144.329

_symmetry_Int_Tables_number  36
_chemical_formula_structural  Mn2OF4
_chemical_formula_sum  Mn4O2F8
_cell_volume  169.19594708069837
_cell_formula_units_Z  2
loop_
  _symmetry_equiv_pos_site_id
 _symmetry_equiv_pos_as_xyz
 1  'x, y, z'
loop_
 _atom_site_type_symbol
 _atom_site_label
 _atom_site_symmetry_multiplicity
 _atom_site_fract_x
 _atom_site_fract_y
 _atom_site_fract_z
 _atom_site_fract_occupancy
 F  F1  1  0.82092  0.17908  0.05165  1
 F  F2  1  0.88231  0.11769  0.44630  1
 F  F3  1  0.54602  0.45398  0.14510  1
 F  F4  1  0.62970  0.37030  0.36695  1
 F  F5  1  0.37030  0.62970  0.86695  1
 F  F6  1  0.45398  0.54602  0.64510  1
 F  F7  1  0.17908  0.82092  0.55165  1
 F  F8  1  0.11769  0.88231  0.94630  1
 Mn  Mn1  1  0.92810  0.07190  0.19599  1
 Mn  Mn2  1  0.74249  0.25751  0.90793  1
 Mn  Mn3  1  0.25751  0.74249  0.40793  1
 Mn  Mn4  1  0.07190  0.92810  0.69599  1
 O  O1  1  0.66719  0.33281  0.76340  1
 O  O2  1  0.33281  0.66719  0.26340  1
