CIF file written using JARVIS-Tools package.
data_Li4Fe3Co5O16
_symmetry_space_group_name_H-M  'P2/m'
_cell_length_a       2.82753
_cell_length_b       4.99895
_cell_length_c       18.3579
_cell_angle_alpha    85.6111
_cell_angle_beta     90
_cell_angle_gamma    90

_symmetry_Int_Tables_number  10
_chemical_formula_structural  Li4Fe3Co5O16
_chemical_formula_sum  Li4Fe3Co5O6
_cell_volume  258.722517192342
_cell_formula_units_Z  1
loop_
  _symmetry_equiv_pos_site_id
 _symmetry_equiv_pos_as_xyz
 1  'x, y, z'
loop_
 _atom_site_type_symbol
 _atom_site_label
 _atom_site_symmetry_multiplicity
 _atom_site_fract_x
 _atom_site_fract_y
 _atom_site_fract_z
 _atom_site_fract_occupancy
 Co  Co1  1  0.50000  0.50000  0.50000  1
 Co  Co2  1  0.50000  0.24809  0.24997  1
 Co  Co3  1  0.00000  0.37326  0.37512  1
 Co  Co4  1  0.00000  0.62674  0.62488  1
 Co  Co5  1  0.50000  0.75191  0.75003  1
 Fe  Fe1  1  0.00000  0.87710  0.87561  1
 Fe  Fe2  1  0.50000  0.00000  0.00000  1
 Fe  Fe3  1  0.00000  0.12290  0.12439  1
 Li  Li1  1  0.00000  0.24980  0.74664  1
 Li  Li2  1  0.00000  0.75020  0.25336  1
 Li  Li3  1  0.00000  0.50000  0.00000  1
 Li  Li4  1  0.00000  -0.00000  0.50000  1
 O  O1  1  0.50000  0.47624  0.68539  1
 O  O2  1  0.50000  0.27972  0.06437  1
 O  O3  1  0.00000  0.10282  0.30826  1
 O  O4  1  0.00000  0.35513  0.55842  1
 O  O5  1  0.00000  0.60930  0.80913  1
 O  O6  1  0.50000  0.52376  0.31461  1
 O  O7  1  0.00000  0.39070  0.19087  1
 O  O8  1  0.00000  0.89718  0.69174  1
 O  O9  1  0.00000  0.85021  0.05780  1
 O  O10  1  0.50000  0.77644  0.56470  1
 O  O11  1  0.50000  0.02874  0.81554  1
 O  O12  1  0.50000  0.97126  0.18446  1
 O  O13  1  0.50000  0.72028  0.93563  1
 O  O14  1  0.00000  0.14979  0.94220  1
 O  O15  1  0.00000  0.64487  0.44158  1
 O  O16  1  0.50000  0.22356  0.43530  1
