CIF file written using JARVIS-Tools package.
data_Li3Cr2CuO6
_symmetry_space_group_name_H-M  'C2/m'
_cell_length_a       15.4985
_cell_length_b       9.71465
_cell_length_c       9.71464
_cell_angle_alpha    16.9841
_cell_angle_beta     16.7969
_cell_angle_gamma    16.7969

_symmetry_Int_Tables_number  12
_chemical_formula_structural  Li3Cr2CuO6
_chemical_formula_sum  Li3Cr2CuO6
_cell_volume  107.30592849635974
_cell_formula_units_Z  1
loop_
  _symmetry_equiv_pos_site_id
 _symmetry_equiv_pos_as_xyz
 1  'x, y, z'
loop_
 _atom_site_type_symbol
 _atom_site_label
 _atom_site_symmetry_multiplicity
 _atom_site_fract_x
 _atom_site_fract_y
 _atom_site_fract_z
 _atom_site_fract_occupancy
 Cr  Cr1  1  0.00555  0.99414  0.99414  1
 Cr  Cr2  1  0.32778  0.00586  0.00586  1
 Cu  Cu1  1  0.66667  0.00000  -0.00000  1
 Li  Li1  1  0.16667  0.50000  0.50000  1
 Li  Li2  1  0.48819  0.50908  0.50908  1
 Li  Li3  1  0.84514  0.49092  0.49092  1
 O  O1  1  0.20215  0.28691  0.28691  1
 O  O2  1  0.58741  0.25471  0.25471  1
 O  O3  1  0.13118  0.71309  0.71309  1
 O  O4  1  0.96431  0.22390  0.22390  1
 O  O5  1  0.36902  0.77610  0.77610  1
 O  O6  1  0.74592  0.74529  0.74529  1
