CIF file written using JARVIS-Tools package.
data_LiNiP2O7
_symmetry_space_group_name_H-M  'C2'
_cell_length_a       5.14337
_cell_length_b       5.14337
_cell_length_c       4.43378
_cell_angle_alpha    80.9963
_cell_angle_beta     80.9962
_cell_angle_gamma    102.034

_symmetry_Int_Tables_number  5
_chemical_formula_structural  LiNiP2O7
_chemical_formula_sum  LiNiP2O7
_cell_volume  111.10829454885885
_cell_formula_units_Z  1
loop_
  _symmetry_equiv_pos_site_id
 _symmetry_equiv_pos_as_xyz
 1  'x, y, z'
loop_
 _atom_site_type_symbol
 _atom_site_label
 _atom_site_symmetry_multiplicity
 _atom_site_fract_x
 _atom_site_fract_y
 _atom_site_fract_z
 _atom_site_fract_occupancy
 Li  Li1  1  0.49282  0.50718  0.00000  1
 Ni  Ni1  1  0.12209  0.87791  -0.00000  1
 O  O1  1  0.42394  0.81998  0.71927  1
 O  O2  1  0.39594  0.11036  0.18902  1
 O  O3  1  0.78251  0.87305  0.26332  1
 O  O4  1  0.12695  0.21749  0.73668  1
 O  O5  1  0.18002  0.57606  0.28073  1
 O  O6  1  0.70991  0.29009  0.50000  1
 O  O7  1  0.88964  0.60406  0.81098  1
 P  P1  1  0.57396  0.01029  0.40728  1
 P  P2  1  0.98971  0.42604  0.59272  1
