CIF file written using JARVIS-Tools package.
data_Li6MnO6
_symmetry_space_group_name_H-M  'R-3'
_cell_length_a       5.61971
_cell_length_b       5.38655
_cell_length_c       5.61981
_cell_angle_alpha    121.448
_cell_angle_beta     119.998
_cell_angle_gamma    58.5573

_symmetry_Int_Tables_number  148
_chemical_formula_structural  Li6MnO6
_chemical_formula_sum  Li6MnO6
_cell_volume  117.59742664105457
_cell_formula_units_Z  1
loop_
  _symmetry_equiv_pos_site_id
 _symmetry_equiv_pos_as_xyz
 1  'x, y, z'
loop_
 _atom_site_type_symbol
 _atom_site_label
 _atom_site_symmetry_multiplicity
 _atom_site_fract_x
 _atom_site_fract_y
 _atom_site_fract_z
 _atom_site_fract_occupancy
 Li  Li1  1  0.28350  0.28960  0.49537  1
 Li  Li2  1  0.07769  0.71031  0.28345  1
 Li  Li3  1  0.49545  0.71024  0.92226  1
 Li  Li4  1  0.50455  0.28976  0.07774  1
 Li  Li5  1  0.92231  0.28969  0.71655  1
 Li  Li6  1  0.71650  0.71040  0.50463  1
 Mn  Mn1  1  0.00000  0.00000  0.00000  1
 O  O1  1  0.09525  0.75806  0.65158  1
 O  O2  1  0.20170  0.24192  0.09521  1
 O  O3  1  0.65161  0.24188  0.79827  1
 O  O4  1  0.34839  0.75812  0.20173  1
 O  O5  1  0.79830  0.75808  0.90479  1
 O  O6  1  0.90475  0.24194  0.34842  1
