CIF file written using JARVIS-Tools package.
data_Mg3Fe3O8
_symmetry_space_group_name_H-M  'R-3m'
_cell_length_a       5.87584
_cell_length_b       5.87584
_cell_length_c       5.87583
_cell_angle_alpha    59.9872
_cell_angle_beta     59.9872
_cell_angle_gamma    59.9872

_symmetry_Int_Tables_number  166
_chemical_formula_structural  Mg3Fe3O8
_chemical_formula_sum  Mg3Fe3O8
_cell_volume  143.40644003812244
_cell_formula_units_Z  1
loop_
  _symmetry_equiv_pos_site_id
 _symmetry_equiv_pos_as_xyz
 1  'x, y, z'
loop_
 _atom_site_type_symbol
 _atom_site_label
 _atom_site_symmetry_multiplicity
 _atom_site_fract_x
 _atom_site_fract_y
 _atom_site_fract_z
 _atom_site_fract_occupancy
 Fe  Fe1  1  0.36886  0.36886  0.36886  1
 Fe  Fe2  1  0.63114  0.63114  0.63114  1
 Fe  Fe3  1  0.00000  0.00000  0.00000  1
 Mg  Mg1  1  -0.00000  -0.00000  0.50000  1
 Mg  Mg2  1  -0.00000  0.50000  0.00000  1
 Mg  Mg3  1  0.50000  0.00000  0.00000  1
 O  O1  1  0.23029  0.76802  0.76802  1
 O  O2  1  0.75782  0.75782  0.75782  1
 O  O3  1  0.76802  0.76802  0.23029  1
 O  O4  1  0.76802  0.23029  0.76802  1
 O  O5  1  0.23198  0.23198  0.76971  1
 O  O6  1  0.23198  0.76971  0.23198  1
 O  O7  1  0.76971  0.23198  0.23198  1
 O  O8  1  0.24218  0.24218  0.24218  1
