CIF file written using JARVIS-Tools package.
data_Li3Fe7O12
_symmetry_space_group_name_H-M  'C2'
_cell_length_a       4.93013
_cell_length_b       4.93013
_cell_length_c       9.55896
_cell_angle_alpha    84.8849
_cell_angle_beta     84.8849
_cell_angle_gamma    120.744

_symmetry_Int_Tables_number  5
_chemical_formula_structural  Li3Fe7O12
_chemical_formula_sum  Li3Fe7O2
_cell_volume  196.41346149466335
_cell_formula_units_Z  1
loop_
  _symmetry_equiv_pos_site_id
 _symmetry_equiv_pos_as_xyz
 1  'x, y, z'
loop_
 _atom_site_type_symbol
 _atom_site_label
 _atom_site_symmetry_multiplicity
 _atom_site_fract_x
 _atom_site_fract_y
 _atom_site_fract_z
 _atom_site_fract_occupancy
 Fe  Fe1  1  0.92294  0.07706  0.50000  1
 Fe  Fe2  1  0.00236  0.51650  0.23623  1
 Fe  Fe3  1  0.74653  0.25347  0.00000  1
 Fe  Fe4  1  0.48350  0.99764  0.76377  1
 Fe  Fe5  1  0.58210  0.41790  0.50000  1
 Fe  Fe6  1  0.42598  0.57402  -0.00000  1
 Fe  Fe7  1  0.24435  0.75565  0.50000  1
 Li  Li1  1  0.67673  0.83880  0.24357  1
 Li  Li2  1  0.16120  0.32327  0.75643  1
 Li  Li3  1  0.07863  0.92137  0.00000  1
 O  O1  1  0.28460  0.46665  0.39184  1
 O  O2  1  0.63720  0.12693  0.39198  1
 O  O3  1  0.94971  0.77972  0.38474  1
 O  O4  1  0.70651  0.53479  0.11583  1
 O  O5  1  0.87307  0.36280  0.60802  1
 O  O6  1  0.03606  0.22487  0.11395  1
 O  O7  1  0.22028  0.05029  0.61526  1
 O  O8  1  0.53335  0.71540  0.60816  1
 O  O9  1  0.39482  0.86434  0.11212  1
 O  O10  1  0.46521  0.29349  0.88417  1
 O  O11  1  0.77513  0.96394  0.88605  1
 O  O12  1  0.13566  0.60518  0.88788  1
