CIF file written using JARVIS-Tools package.
data_Mn3FeP4O16
_symmetry_space_group_name_H-M  'Pm'
_cell_length_a       5.88356
_cell_length_b       4.79052
_cell_length_c       9.71378
_cell_angle_alpha    89.5664
_cell_angle_beta     90
_cell_angle_gamma    90

_symmetry_Int_Tables_number  6
_chemical_formula_structural  Mn3FeP4O16
_chemical_formula_sum  Mn3FeP4O6
_cell_volume  273.77795794025405
_cell_formula_units_Z  1
loop_
  _symmetry_equiv_pos_site_id
 _symmetry_equiv_pos_as_xyz
 1  'x, y, z'
loop_
 _atom_site_type_symbol
 _atom_site_label
 _atom_site_symmetry_multiplicity
 _atom_site_fract_x
 _atom_site_fract_y
 _atom_site_fract_z
 _atom_site_fract_occupancy
 Fe  Fe1  1  0.00000  0.06727  0.72216  1
 Mn  Mn1  1  0.50000  0.91325  0.28334  1
 Mn  Mn2  1  0.50000  0.58262  0.78201  1
 Mn  Mn3  1  0.00000  0.41628  0.21627  1
 O  O1  1  0.00000  0.83752  0.56017  1
 O  O2  1  0.20640  0.73823  0.33395  1
 O  O3  1  0.79360  0.73823  0.33395  1
 O  O4  1  0.29307  0.26020  0.66288  1
 O  O5  1  0.50000  0.70942  0.11987  1
 O  O6  1  0.20447  0.76306  0.83688  1
 O  O7  1  0.50000  0.79489  0.62113  1
 O  O8  1  0.00000  0.66571  0.06535  1
 O  O9  1  0.50000  0.34716  0.93704  1
 O  O10  1  0.29360  0.24287  0.16333  1
 O  O11  1  0.79553  0.76306  0.83688  1
 O  O12  1  0.00000  0.29760  0.88356  1
 O  O13  1  0.00000  0.20302  0.37715  1
 O  O14  1  0.70693  0.26020  0.66288  1
 O  O15  1  0.70640  0.24287  0.16333  1
 O  O16  1  0.50000  0.15481  0.43615  1
 P  P1  1  0.50000  0.11305  0.59346  1
 P  P2  1  0.50000  0.39285  0.09400  1
 P  P3  1  0.00000  0.61017  0.90959  1
 P  P4  1  0.00000  0.88563  0.40465  1
