CIF file written using JARVIS-Tools package.
data_Na4VO4
_symmetry_space_group_name_H-M  'P-1'
_cell_length_a       5.72736
_cell_length_b       5.73442
_cell_length_c       8.66212
_cell_angle_alpha    80.6718
_cell_angle_beta     70.5122
_cell_angle_gamma    68.5469

_symmetry_Int_Tables_number  2
_chemical_formula_structural  Na4VO4
_chemical_formula_sum  Na8V2O8
_cell_volume  249.35176912321273
_cell_formula_units_Z  2
loop_
  _symmetry_equiv_pos_site_id
 _symmetry_equiv_pos_as_xyz
 1  'x, y, z'
loop_
 _atom_site_type_symbol
 _atom_site_label
 _atom_site_symmetry_multiplicity
 _atom_site_fract_x
 _atom_site_fract_y
 _atom_site_fract_z
 _atom_site_fract_occupancy
 Na  Na1  1  0.47673  0.73443  0.56734  1
 Na  Na2  1  0.94793  0.23862  0.60412  1
 Na  Na3  1  0.52327  0.26557  0.43266  1
 Na  Na4  1  0.05207  0.76138  0.39588  1
 Na  Na5  1  0.61124  0.73242  0.18182  1
 Na  Na6  1  0.75844  0.24447  0.01236  1
 Na  Na7  1  0.24156  0.75553  0.98764  1
 Na  Na8  1  0.38876  0.26758  0.81818  1
 O  O1  1  0.14469  0.15201  0.07280  1
 O  O2  1  0.36510  0.47362  0.19755  1
 O  O3  1  0.29913  0.02595  0.37565  1
 O  O4  1  0.83697  0.47682  0.36210  1
 O  O5  1  0.85531  0.84799  0.92720  1
 O  O6  1  0.70087  0.97405  0.62435  1
 O  O7  1  0.63490  0.52638  0.80245  1
 O  O8  1  0.16303  0.52318  0.63790  1
 V  V1  1  0.15708  0.28048  0.24368  1
 V  V2  1  0.84292  0.71952  0.75632  1
