CIF file written using JARVIS-Tools package.
data_LiMn2B2O6
_symmetry_space_group_name_H-M  'P-1'
_cell_length_a       5.72619
_cell_length_b       9.09446
_cell_length_c       5.20316
_cell_angle_alpha    90.4531
_cell_angle_beta     114.21
_cell_angle_gamma    104.929

_symmetry_Int_Tables_number  2
_chemical_formula_structural  LiMn2B2O6
_chemical_formula_sum  Li2Mn4B4O2
_cell_volume  236.79911816040052
_cell_formula_units_Z  2
loop_
  _symmetry_equiv_pos_site_id
 _symmetry_equiv_pos_as_xyz
 1  'x, y, z'
loop_
 _atom_site_type_symbol
 _atom_site_label
 _atom_site_symmetry_multiplicity
 _atom_site_fract_x
 _atom_site_fract_y
 _atom_site_fract_z
 _atom_site_fract_occupancy
 B  B1  1  0.74472  0.05360  0.78027  1
 B  B2  1  0.74222  0.53053  0.27434  1
 B  B3  1  0.25778  0.46947  0.72566  1
 B  B4  1  0.25528  0.94640  0.21973  1
 Li  Li1  1  0.67434  0.18948  0.25412  1
 Li  Li2  1  0.32566  0.81052  0.74588  1
 Mn  Mn1  1  0.74437  0.39885  0.75984  1
 Mn  Mn2  1  0.75190  0.87024  0.27761  1
 Mn  Mn3  1  0.24810  0.12976  0.72239  1
 Mn  Mn4  1  0.25563  0.60115  0.24016  1
 O  O1  1  0.13773  0.44015  0.91283  1
 O  O2  1  0.86228  0.55985  0.08718  1
 O  O3  1  0.71888  0.39310  0.37763  1
 O  O4  1  0.66707  0.17443  0.85892  1
 O  O5  1  0.83933  0.07051  0.56635  1
 O  O6  1  0.28112  0.60690  0.62237  1
 O  O7  1  0.70543  0.91828  0.88748  1
 O  O8  1  0.35808  0.35783  0.66193  1
 O  O9  1  0.33293  0.82557  0.14108  1
 O  O10  1  0.64191  0.64217  0.33806  1
 O  O11  1  0.29457  0.08172  0.11252  1
 O  O12  1  0.16067  0.92949  0.43365  1
