CIF file written using JARVIS-Tools package.
data_Li3YNi2O6
_symmetry_space_group_name_H-M  'C2'
_cell_length_a       5.27617
_cell_length_b       5.27695
_cell_length_c       5.12835
_cell_angle_alpha    81.5918
_cell_angle_beta     98.4348
_cell_angle_gamma    58.9461

_symmetry_Int_Tables_number  5
_chemical_formula_structural  Li3YNi2O6
_chemical_formula_sum  Li3YNi2O6
_cell_volume  116.77575199845857
_cell_formula_units_Z  1
loop_
  _symmetry_equiv_pos_site_id
 _symmetry_equiv_pos_as_xyz
 1  'x, y, z'
loop_
 _atom_site_type_symbol
 _atom_site_label
 _atom_site_symmetry_multiplicity
 _atom_site_fract_x
 _atom_site_fract_y
 _atom_site_fract_z
 _atom_site_fract_occupancy
 Li  Li1  1  0.19546  0.19566  0.49999  1
 Li  Li2  1  0.47361  0.47330  0.50013  1
 Li  Li3  1  0.80831  0.80789  0.50016  1
 Ni  Ni1  1  0.33610  0.33616  -0.00004  1
 Ni  Ni2  1  0.66744  0.66754  -0.00008  1
 O  O1  1  0.29290  0.69304  0.76563  1
 O  O2  1  0.08726  0.56050  0.23043  1
 O  O3  1  0.42831  0.95373  0.23046  1
 O  O4  1  0.95355  0.42809  0.76947  1
 O  O5  1  0.56053  0.08724  0.76955  1
 O  O6  1  0.69292  0.29339  0.23416  1
 Y  Y1  1  0.00361  0.00346  0.00014  1
