CIF file written using JARVIS-Tools package.
data_LiCr2P2O8
_symmetry_space_group_name_H-M  'Pc'
_cell_length_a       8.00762
_cell_length_b       4.83035
_cell_length_c       10.3476
_cell_angle_alpha    57.8965
_cell_angle_beta     90
_cell_angle_gamma    90

_symmetry_Int_Tables_number  7
_chemical_formula_structural  LiCr2P2O8
_chemical_formula_sum  Li2Cr4P4O6
_cell_volume  339.0412127565478
_cell_formula_units_Z  2
loop_
  _symmetry_equiv_pos_site_id
 _symmetry_equiv_pos_as_xyz
 1  'x, y, z'
loop_
 _atom_site_type_symbol
 _atom_site_label
 _atom_site_symmetry_multiplicity
 _atom_site_fract_x
 _atom_site_fract_y
 _atom_site_fract_z
 _atom_site_fract_occupancy
 Cr  Cr1  1  0.44234  0.00812  0.98054  1
 Cr  Cr2  1  0.55766  0.00812  0.48054  1
 Cr  Cr3  1  0.88978  0.52590  0.51736  1
 Cr  Cr4  1  0.11022  0.52590  0.01736  1
 Li  Li1  1  0.82776  0.91802  0.12833  1
 Li  Li2  1  0.17224  0.91802  0.62833  1
 O  O1  1  0.30740  0.22215  0.07100  1
 O  O2  1  0.39726  0.13259  0.59003  1
 O  O3  1  0.04574  0.90991  0.46187  1
 O  O4  1  0.51625  0.55119  0.65242  1
 O  O5  1  0.48375  0.55119  0.15242  1
 O  O6  1  0.57141  -0.04345  0.83614  1
 O  O7  1  0.42859  -0.04345  0.33614  1
 O  O8  1  0.69260  0.22215  0.57100  1
 O  O9  1  0.95426  0.90991  0.96187  1
 O  O10  1  0.91211  0.48754  0.31895  1
 O  O11  1  0.08789  0.48754  0.81895  1
 O  O12  1  0.60274  0.13259  0.09003  1
 O  O13  1  0.03372  0.19742  0.67729  1
 O  O14  1  0.75875  0.95025  0.38523  1
 O  O15  1  0.96628  0.19742  0.17729  1
 O  O16  1  0.24125  0.95025  0.88523  1
 P  P1  1  0.53797  0.21855  0.66816  1
 P  P2  1  0.46203  0.21855  0.16816  1
 P  P3  1  0.92780  0.15903  0.33216  1
 P  P4  1  0.07220  0.15903  0.83216  1
