CIF file written using JARVIS-Tools package.
data_Mn2F7
_symmetry_space_group_name_H-M  'P-1'
_cell_length_a       5.23186
_cell_length_b       5.85211
_cell_length_c       8.42913
_cell_angle_alpha    73.0758
_cell_angle_beta     77.1943
_cell_angle_gamma    86.0722

_symmetry_Int_Tables_number  2
_chemical_formula_structural  Mn2F7
_chemical_formula_sum  Mn4F4
_cell_volume  240.7578577224523
_cell_formula_units_Z  2
loop_
  _symmetry_equiv_pos_site_id
 _symmetry_equiv_pos_as_xyz
 1  'x, y, z'
loop_
 _atom_site_type_symbol
 _atom_site_label
 _atom_site_symmetry_multiplicity
 _atom_site_fract_x
 _atom_site_fract_y
 _atom_site_fract_z
 _atom_site_fract_occupancy
 F  F1  1  0.55351  0.10267  0.61915  1
 F  F2  1  0.40473  0.32581  0.14000  1
 F  F3  1  0.66748  0.90393  0.09140  1
 F  F4  1  0.92413  0.11134  0.24574  1
 F  F5  1  0.13064  0.74254  0.20175  1
 F  F6  1  0.33252  0.09607  0.90860  1
 F  F7  1  0.68265  0.50520  0.33386  1
 F  F8  1  0.44649  0.89733  0.38085  1
 F  F9  1  0.59527  0.67419  0.86000  1
 F  F10  1  0.86485  0.73203  0.50776  1
 F  F11  1  0.31735  0.49480  0.66614  1
 F  F12  1  0.86936  0.25746  0.79825  1
 F  F13  1  0.07587  0.88866  0.75426  1
 F  F14  1  0.13515  0.26797  0.49224  1
 Mn  Mn1  1  0.71104  0.95674  0.82714  1
 Mn  Mn2  1  0.22063  0.20887  0.68789  1
 Mn  Mn3  1  0.77937  0.79113  0.31211  1
 Mn  Mn4  1  0.28896  0.04326  0.17286  1
