CIF file written using JARVIS-Tools package.
data_Na3CoO3
_symmetry_space_group_name_H-M  'P4_2/mnm'
_cell_length_a       8.91783
_cell_length_b       8.91783
_cell_length_c       4.53765
_cell_angle_alpha    90
_cell_angle_beta     90
_cell_angle_gamma    90

_symmetry_Int_Tables_number  136
_chemical_formula_structural  Na3CoO3
_chemical_formula_sum  Na2Co4O2
_cell_volume  360.8687145213228
_cell_formula_units_Z  4
loop_
  _symmetry_equiv_pos_site_id
 _symmetry_equiv_pos_as_xyz
 1  'x, y, z'
loop_
 _atom_site_type_symbol
 _atom_site_label
 _atom_site_symmetry_multiplicity
 _atom_site_fract_x
 _atom_site_fract_y
 _atom_site_fract_z
 _atom_site_fract_occupancy
 Co  Co1  1  0.38413  0.61587  0.50000  1
 Co  Co2  1  0.11587  0.11587  0.00000  1
 Co  Co3  1  0.61587  0.38413  0.50000  1
 Co  Co4  1  0.88413  0.88413  0.00000  1
 Na  Na1  1  0.38127  0.86660  0.00000  1
 Na  Na2  1  0.63340  0.88127  0.50000  1
 Na  Na3  1  0.14029  0.85971  0.50000  1
 Na  Na4  1  0.64029  0.64029  0.00000  1
 Na  Na5  1  0.61873  0.13340  0.00000  1
 Na  Na6  1  0.88127  0.63340  0.50000  1
 Na  Na7  1  0.11873  0.36660  0.50000  1
 Na  Na8  1  0.86660  0.38127  0.00000  1
 Na  Na9  1  0.35971  0.35971  0.00000  1
 Na  Na10  1  0.85971  0.14029  0.50000  1
 Na  Na11  1  0.36660  0.11873  0.50000  1
 Na  Na12  1  0.13340  0.61873  0.00000  1
 O  O1  1  0.39263  0.81727  0.50000  1
 O  O2  1  0.89263  0.68273  0.00000  1
 O  O3  1  0.18273  0.60737  0.50000  1
 O  O4  1  0.59482  0.59482  0.50000  1
 O  O5  1  0.40518  0.40518  0.50000  1
 O  O6  1  0.60737  0.18273  0.50000  1
 O  O7  1  0.10737  0.31727  0.00000  1
 O  O8  1  0.31727  0.10737  0.00000  1
 O  O9  1  0.90518  0.09482  0.00000  1
 O  O10  1  0.68273  0.89263  0.00000  1
 O  O11  1  0.81727  0.39263  0.50000  1
 O  O12  1  0.09482  0.90518  0.00000  1
