CIF file written using JARVIS-Tools package.
data_LiVCoO4
_symmetry_space_group_name_H-M  'Imma'
_cell_length_a       5.72459
_cell_length_b       5.72459
_cell_length_c       5.72459
_cell_angle_alpha    118.829
_cell_angle_beta     119.897
_cell_angle_gamma    91.1094

_symmetry_Int_Tables_number  74
_chemical_formula_structural  LiVCoO4
_chemical_formula_sum  Li2V2Co2O8
_cell_volume  133.88919058636282
_cell_formula_units_Z  2
loop_
  _symmetry_equiv_pos_site_id
 _symmetry_equiv_pos_as_xyz
 1  'x, y, z'
loop_
 _atom_site_type_symbol
 _atom_site_label
 _atom_site_symmetry_multiplicity
 _atom_site_fract_x
 _atom_site_fract_y
 _atom_site_fract_z
 _atom_site_fract_occupancy
 Co  Co1  1  -0.00000  0.50000  0.00000  1
 Co  Co2  1  0.00000  0.00000  0.50000  1
 Li  Li1  1  0.37223  0.12223  0.25000  1
 Li  Li2  1  0.62777  0.87777  0.75000  1
 O  O1  1  0.21208  0.73866  0.47343  1
 O  O2  1  0.76523  0.73866  0.02657  1
 O  O3  1  0.75893  0.73540  0.47647  1
 O  O4  1  0.75893  0.28246  0.02353  1
 O  O5  1  0.24107  0.71754  0.97647  1
 O  O6  1  0.24107  0.26460  0.52353  1
 O  O7  1  0.23477  0.26134  0.97343  1
 O  O8  1  0.78792  0.26134  0.52657  1
 V  V1  1  -0.00000  0.50000  0.50000  1
 V  V2  1  0.50000  0.50000  0.00000  1
