CIF file written using JARVIS-Tools package.
data_Fe3O5F
_symmetry_space_group_name_H-M  'P2_1'
_cell_length_a       4.34168
_cell_length_b       5.17111
_cell_length_c       7.17956
_cell_angle_alpha    86.946
_cell_angle_beta     90
_cell_angle_gamma    90

_symmetry_Int_Tables_number  4
_chemical_formula_structural  Fe3O5F
_chemical_formula_sum  Fe6O0F2
_cell_volume  160.96182700729526
_cell_formula_units_Z  2
loop_
  _symmetry_equiv_pos_site_id
 _symmetry_equiv_pos_as_xyz
 1  'x, y, z'
loop_
 _atom_site_type_symbol
 _atom_site_label
 _atom_site_symmetry_multiplicity
 _atom_site_fract_x
 _atom_site_fract_y
 _atom_site_fract_z
 _atom_site_fract_occupancy
 F  F1  1  0.80661  0.77920  0.26696  1
 F  F2  1  0.30661  0.22080  0.73304  1
 Fe  Fe1  1  0.97469  0.43088  0.83761  1
 Fe  Fe2  1  0.01544  0.75318  0.51115  1
 Fe  Fe3  1  0.47469  0.56912  0.16239  1
 Fe  Fe4  1  0.51544  0.24682  0.48885  1
 Fe  Fe5  1  0.51226  0.90790  0.83585  1
 Fe  Fe6  1  0.01226  0.09210  0.16415  1
 O  O1  1  0.80465  0.12081  0.93235  1
 O  O2  1  0.80941  0.45186  0.60154  1
 O  O3  1  0.69837  0.94828  0.60000  1
 O  O4  1  0.69385  0.28263  0.26218  1
 O  O5  1  0.19385  0.71737  0.73782  1
 O  O6  1  0.30465  0.87919  0.06765  1
 O  O7  1  0.18471  0.38086  0.06187  1
 O  O8  1  0.19837  0.05172  0.40000  1
 O  O9  1  0.30941  0.54814  0.39846  1
 O  O10  1  0.68471  0.61914  0.93813  1
