CIF file written using JARVIS-Tools package.
data_LiCoPO4
_symmetry_space_group_name_H-M  'P-1'
_cell_length_a       5.36756
_cell_length_b       6.20351
_cell_length_c       9.08138
_cell_angle_alpha    103.988
_cell_angle_beta     84.0668
_cell_angle_gamma    103.01

_symmetry_Int_Tables_number  2
_chemical_formula_structural  LiCoPO4
_chemical_formula_sum  Li4Co4P4O6
_cell_volume  285.50663024471
_cell_formula_units_Z  4
loop_
  _symmetry_equiv_pos_site_id
 _symmetry_equiv_pos_as_xyz
 1  'x, y, z'
loop_
 _atom_site_type_symbol
 _atom_site_label
 _atom_site_symmetry_multiplicity
 _atom_site_fract_x
 _atom_site_fract_y
 _atom_site_fract_z
 _atom_site_fract_occupancy
 Co  Co1  1  0.85000  0.53482  0.27799  1
 Co  Co2  1  0.14999  0.46517  0.72201  1
 Co  Co3  1  0.27828  0.34081  0.09317  1
 Co  Co4  1  0.72171  0.65919  0.90683  1
 Li  Li1  1  0.63603  0.00665  0.24088  1
 Li  Li2  1  0.36398  0.99334  0.75911  1
 Li  Li3  1  0.18955  0.15647  0.42358  1
 Li  Li4  1  0.81047  0.84354  0.57641  1
 O  O1  1  0.60840  0.33517  0.93653  1
 O  O2  1  0.15193  0.79207  0.88138  1
 O  O3  1  0.84806  0.20793  0.11862  1
 O  O4  1  0.39160  0.66483  0.06347  1
 O  O5  1  0.92251  0.71199  0.11360  1
 O  O6  1  0.65467  0.31694  0.40499  1
 O  O7  1  0.69374  0.95019  0.85927  1
 O  O8  1  0.07749  0.28801  0.88641  1
 O  O9  1  0.12753  0.82706  0.41253  1
 O  O10  1  0.19998  0.43773  0.33182  1
 O  O11  1  0.59519  0.76692  0.36320  1
 O  O12  1  0.40481  0.23307  0.63681  1
 O  O13  1  0.30626  0.04981  0.14073  1
 O  O14  1  0.80002  0.56227  0.66818  1
 O  O15  1  0.87248  0.17294  0.58747  1
 O  O16  1  0.34532  0.68305  0.59501  1
 P  P1  1  0.19568  0.80889  0.05130  1
 P  P2  1  0.80432  0.19112  0.94871  1
 P  P3  1  0.32062  0.68125  0.42669  1
 P  P4  1  0.67938  0.31875  0.57331  1
