CIF file written using JARVIS-Tools package.
data_LiCoSiO4
_symmetry_space_group_name_H-M  'Pna2_1'
_cell_length_a       4.95465
_cell_length_b       6.04067
_cell_length_c       10.8522
_cell_angle_alpha    90
_cell_angle_beta     90
_cell_angle_gamma    90

_symmetry_Int_Tables_number  33
_chemical_formula_structural  LiCoSiO4
_chemical_formula_sum  Li4Co4Si4O6
_cell_volume  324.7993777925821
_cell_formula_units_Z  4
loop_
  _symmetry_equiv_pos_site_id
 _symmetry_equiv_pos_as_xyz
 1  'x, y, z'
loop_
 _atom_site_type_symbol
 _atom_site_label
 _atom_site_symmetry_multiplicity
 _atom_site_fract_x
 _atom_site_fract_y
 _atom_site_fract_z
 _atom_site_fract_occupancy
 Co  Co1  1  0.64849  0.24758  0.33590  1
 Co  Co2  1  0.85151  0.24758  0.83590  1
 Co  Co3  1  0.35151  0.74758  0.66410  1
 Co  Co4  1  0.14849  0.74758  0.16410  1
 Li  Li1  1  0.35204  0.50141  0.92493  1
 Li  Li2  1  0.14796  0.50141  0.42493  1
 Li  Li3  1  0.85204  0.00141  0.57507  1
 Li  Li4  1  0.64796  0.00141  0.07507  1
 O  O1  1  0.26105  0.02428  0.10250  1
 O  O2  1  0.68551  0.23342  0.67997  1
 O  O3  1  0.22580  0.26897  0.81050  1
 O  O4  1  0.23895  0.02428  0.60250  1
 O  O5  1  0.81449  0.23342  0.17997  1
 O  O6  1  0.72487  0.97384  0.40993  1
 O  O7  1  0.27513  0.47384  0.59007  1
 O  O8  1  0.27420  0.26897  0.31050  1
 O  O9  1  0.73895  0.52428  0.89750  1
 O  O10  1  0.72580  0.76897  0.68950  1
 O  O11  1  0.77420  0.76897  0.18950  1
 O  O12  1  0.31449  0.73342  0.32003  1
 O  O13  1  0.22487  0.47384  0.09007  1
 O  O14  1  0.18551  0.73342  0.82003  1
 O  O15  1  0.76105  0.52428  0.39750  1
 O  O16  1  0.77513  0.97384  0.90993  1
 Si  Si1  1  0.35403  0.25025  0.67001  1
 Si  Si2  1  0.14597  0.25025  0.17001  1
 Si  Si3  1  0.64597  0.75025  0.32999  1
 Si  Si4  1  0.85403  0.75025  0.82999  1
