CIF file written using JARVIS-Tools package.
data_V3O5F3
_symmetry_space_group_name_H-M  'Cc'
_cell_length_a       7.13287
_cell_length_b       7.13287
_cell_length_c       4.93777
_cell_angle_alpha    89.0325
_cell_angle_beta     89.0326
_cell_angle_gamma    102.665

_symmetry_Int_Tables_number  9
_chemical_formula_structural  V3O5F3
_chemical_formula_sum  V6O0F6
_cell_volume  245.0211441714854
_cell_formula_units_Z  2
loop_
  _symmetry_equiv_pos_site_id
 _symmetry_equiv_pos_as_xyz
 1  'x, y, z'
loop_
 _atom_site_type_symbol
 _atom_site_label
 _atom_site_symmetry_multiplicity
 _atom_site_fract_x
 _atom_site_fract_y
 _atom_site_fract_z
 _atom_site_fract_occupancy
 F  F1  1  0.81451  0.90879  0.04131  1
 F  F2  1  0.90879  0.81451  0.54131  1
 F  F3  1  0.79147  0.43689  0.41726  1
 F  F4  1  0.09615  0.18654  0.45750  1
 F  F5  1  0.18654  0.09615  0.95750  1
 F  F6  1  0.43689  0.79147  0.91726  1
 O  O1  1  0.67346  0.06035  0.63021  1
 O  O2  1  0.55742  0.21244  0.07946  1
 O  O3  1  0.93233  0.32514  0.86725  1
 O  O4  1  0.43253  0.29728  0.59138  1
 O  O5  1  0.29728  0.43253  0.09138  1
 O  O6  1  0.69787  0.57452  0.90267  1
 O  O7  1  0.57452  0.69787  0.40267  1
 O  O8  1  0.06035  0.67346  0.13021  1
 O  O9  1  0.32514  0.93233  0.36725  1
 O  O10  1  0.21244  0.55742  0.57946  1
 V  V1  1  0.66593  0.82459  0.70302  1
 V  V2  1  0.30551  0.68161  0.27387  1
 V  V3  1  0.82459  0.66593  0.20302  1
 V  V4  1  0.17504  0.34494  0.78369  1
 V  V5  1  0.68161  0.30551  0.77387  1
 V  V6  1  0.34494  0.17504  0.28369  1
