CIF file written using JARVIS-Tools package.
data_Li3Fe2NiO6
_symmetry_space_group_name_H-M  'C2/m'
_cell_length_a       6.46129
_cell_length_b       6.4613
_cell_length_c       5.72818
_cell_angle_alpha    77.1771
_cell_angle_beta     77.1771
_cell_angle_gamma    25.298

_symmetry_Int_Tables_number  12
_chemical_formula_structural  Li3Fe2NiO6
_chemical_formula_sum  Li3Fe2NiO6
_cell_volume  99.51290947762183
_cell_formula_units_Z  1
loop_
  _symmetry_equiv_pos_site_id
 _symmetry_equiv_pos_as_xyz
 1  'x, y, z'
loop_
 _atom_site_type_symbol
 _atom_site_label
 _atom_site_symmetry_multiplicity
 _atom_site_fract_x
 _atom_site_fract_y
 _atom_site_fract_z
 _atom_site_fract_occupancy
 Fe  Fe1  1  0.16982  0.16982  0.66179  1
 Fe  Fe2  1  0.83018  0.83018  0.33821  1
 Li  Li1  1  0.50000  0.50000  0.50000  1
 Li  Li2  1  0.16509  0.16509  0.15789  1
 Li  Li3  1  0.83491  0.83491  0.84211  1
 Ni  Ni1  1  0.50000  0.50000  0.00000  1
 O  O1  1  0.66996  0.66996  0.88938  1
 O  O2  1  0.32825  0.32825  0.57136  1
 O  O3  1  0.33004  0.33004  0.11062  1
 O  O4  1  0.98637  0.98637  0.24464  1
 O  O5  1  0.01363  0.01363  0.75536  1
 O  O6  1  0.67175  0.67175  0.42864  1
