CIF file written using JARVIS-Tools package.
data_VOF
_symmetry_space_group_name_H-M  'Cm'
_cell_length_a       7.69189
_cell_length_b       7.69188
_cell_length_c       4.62337
_cell_angle_alpha    89.9079
_cell_angle_beta     89.9079
_cell_angle_gamma    105.397

_symmetry_Int_Tables_number  8
_chemical_formula_structural  VOF
_chemical_formula_sum  V8O8F8
_cell_volume  263.7230988787547
_cell_formula_units_Z  8
loop_
  _symmetry_equiv_pos_site_id
 _symmetry_equiv_pos_as_xyz
 1  'x, y, z'
loop_
 _atom_site_type_symbol
 _atom_site_label
 _atom_site_symmetry_multiplicity
 _atom_site_fract_x
 _atom_site_fract_y
 _atom_site_fract_z
 _atom_site_fract_occupancy
 F  F1  1  0.27931  0.27931  0.79996  1
 F  F2  1  0.01879  0.53427  0.79195  1
 F  F3  1  0.15333  0.91360  0.70391  1
 F  F4  1  0.91360  0.15333  0.70391  1
 F  F5  1  0.83672  0.59612  0.29777  1
 F  F6  1  0.59612  0.83672  0.29777  1
 F  F7  1  0.47596  0.47596  0.20766  1
 F  F8  1  0.53427  0.01879  0.79195  1
 O  O1  1  0.98145  0.98145  0.20843  1
 O  O2  1  0.72550  0.20984  0.19339  1
 O  O3  1  0.20984  0.72550  0.19339  1
 O  O4  1  0.35344  0.09899  0.29578  1
 O  O5  1  0.09899  0.35344  0.29578  1
 O  O6  1  0.39569  0.65062  0.70021  1
 O  O7  1  0.77295  0.77295  0.80587  1
 O  O8  1  0.65062  0.39569  0.70021  1
 V  V1  1  0.99404  0.76662  0.01230  1
 V  V2  1  0.24636  0.51488  0.01109  1
 V  V3  1  0.76662  0.99404  0.01230  1
 V  V4  1  0.51488  0.24636  0.01109  1
 V  V5  1  0.86271  0.36122  0.47603  1
 V  V6  1  0.14233  0.14233  0.44625  1
 V  V7  1  0.36122  0.86271  0.47603  1
 V  V8  1  0.61528  0.61528  0.56698  1
