CIF file written using JARVIS-Tools package.
data_CoSn3P4O16
_symmetry_space_group_name_H-M  'Pm'
_cell_length_a       4.98522
_cell_length_b       10.0093
_cell_length_c       6.05012
_cell_angle_alpha    90
_cell_angle_beta     89.9977
_cell_angle_gamma    89.5822

_symmetry_Int_Tables_number  6
_chemical_formula_structural  CoSn3P4O16
_chemical_formula_sum  CoSn3P4O6
_cell_volume  301.88279551760263
_cell_formula_units_Z  1
loop_
  _symmetry_equiv_pos_site_id
 _symmetry_equiv_pos_as_xyz
 1  'x, y, z'
loop_
 _atom_site_type_symbol
 _atom_site_label
 _atom_site_symmetry_multiplicity
 _atom_site_fract_x
 _atom_site_fract_y
 _atom_site_fract_z
 _atom_site_fract_occupancy
 Co  Co1  1  0.10554  0.72305  0.75001  1
 O  O1  1  0.22606  0.45255  0.25007  1
 O  O2  1  0.30841  0.67342  0.04883  1
 O  O3  1  0.30839  0.67344  0.45119  1
 O  O4  1  0.63888  0.35588  0.94413  1
 O  O5  1  0.33227  0.88900  0.75002  1
 O  O6  1  0.24892  0.14491  0.04556  1
 O  O7  1  0.09477  0.34911  0.75005  1
 O  O8  1  0.29709  0.92390  0.25001  1
 O  O9  1  0.69112  0.06546  0.75000  1
 O  O10  1  0.78229  0.84368  0.54808  1
 O  O11  1  0.78230  0.84368  0.95191  1
 O  O12  1  0.68547  0.07961  0.25002  1
 O  O13  1  0.85962  0.62539  0.25000  1
 O  O14  1  0.63898  0.35585  0.55581  1
 O  O15  1  0.24888  0.14493  0.45442  1
 O  O16  1  0.84426  0.56657  0.74996  1
 P  P1  1  0.81514  0.41731  0.74998  1
 P  P2  1  0.63140  0.91194  0.75000  1
 P  P3  1  0.38359  0.07203  0.25000  1
 P  P4  1  0.16803  0.59969  0.25002  1
 Sn  Sn1  1  0.90335  0.28831  0.24994  1
 Sn  Sn2  1  0.59936  0.78323  0.25000  1
 Sn  Sn3  1  0.40587  0.21707  0.74998  1
