CIF file written using JARVIS-Tools package.
data_LiVOF3
_symmetry_space_group_name_H-M  'P2_1/c'
_cell_length_a       4.44024
_cell_length_b       11.4475
_cell_length_c       4.78045
_cell_angle_alpha    90
_cell_angle_beta     89.9998
_cell_angle_gamma    91.1633

_symmetry_Int_Tables_number  14
_chemical_formula_structural  LiVOF3
_chemical_formula_sum  Li4V4O4F2
_cell_volume  242.93842378217562
_cell_formula_units_Z  4
loop_
  _symmetry_equiv_pos_site_id
 _symmetry_equiv_pos_as_xyz
 1  'x, y, z'
loop_
 _atom_site_type_symbol
 _atom_site_label
 _atom_site_symmetry_multiplicity
 _atom_site_fract_x
 _atom_site_fract_y
 _atom_site_fract_z
 _atom_site_fract_occupancy
 F  F1  1  0.76210  0.80647  0.57189  1
 F  F2  1  0.75291  0.56846  0.59220  1
 F  F3  1  0.75943  0.43313  0.08700  1
 F  F4  1  0.73790  0.69353  0.07189  1
 F  F5  1  0.26210  0.30647  0.92811  1
 F  F6  1  0.24709  0.43154  0.40780  1
 F  F7  1  0.24057  0.56687  0.91300  1
 F  F8  1  0.25943  0.93313  0.41300  1
 F  F9  1  0.25291  0.06846  0.90780  1
 F  F10  1  0.23790  0.19353  0.42811  1
 F  F11  1  0.74709  0.93154  0.09220  1
 F  F12  1  0.74057  0.06687  0.58700  1
 Li  Li1  1  0.01087  0.05537  0.25329  1
 Li  Li2  1  0.48913  0.44463  0.75329  1
 Li  Li3  1  0.51087  0.55537  0.24671  1
 Li  Li4  1  0.98913  0.94463  0.74671  1
 O  O1  1  0.75926  0.20168  0.06550  1
 O  O2  1  0.74074  0.29833  0.56550  1
 O  O3  1  0.24074  0.79833  0.93450  1
 O  O4  1  0.25925  0.70168  0.43450  1
 V  V1  1  0.53035  0.18484  0.77574  1
 V  V2  1  0.46965  0.81516  0.22427  1
 V  V3  1  0.96965  0.31516  0.27574  1
 V  V4  1  0.03035  0.68484  0.72427  1
