CIF file written using JARVIS-Tools package.
data_VOF
_symmetry_space_group_name_H-M  'P2_1/c'
_cell_length_a       4.61368
_cell_length_b       9.35314
_cell_length_c       6.10955
_cell_angle_alpha    89.9999
_cell_angle_beta     90
_cell_angle_gamma    90.8184

_symmetry_Int_Tables_number  14
_chemical_formula_structural  VOF
_chemical_formula_sum  V8O8F8
_cell_volume  263.6149454788486
_cell_formula_units_Z  8
loop_
  _symmetry_equiv_pos_site_id
 _symmetry_equiv_pos_as_xyz
 1  'x, y, z'
loop_
 _atom_site_type_symbol
 _atom_site_label
 _atom_site_symmetry_multiplicity
 _atom_site_fract_x
 _atom_site_fract_y
 _atom_site_fract_z
 _atom_site_fract_occupancy
 F  F1  1  0.78602  0.60147  0.75136  1
 F  F2  1  0.70545  0.84561  0.49961  1
 F  F3  1  0.70545  0.34561  0.00039  1
 F  F4  1  0.29455  0.65439  0.99961  1
 F  F5  1  0.29455  0.15439  0.50039  1
 F  F6  1  0.21398  0.89853  0.25136  1
 F  F7  1  0.21398  0.39853  0.24864  1
 F  F8  1  0.78602  0.10147  0.74864  1
 O  O1  1  0.19312  0.40907  0.75468  1
 O  O2  1  0.19312  0.90907  0.74532  1
 O  O3  1  0.30381  0.15620  0.00079  1
 O  O4  1  0.30381  0.65620  0.49921  1
 O  O5  1  0.69619  0.34380  0.50079  1
 O  O6  1  0.80688  0.09093  0.25467  1
 O  O7  1  0.80688  0.59093  0.24533  1
 O  O8  1  0.69619  0.84380  0.99921  1
 V  V1  1  0.46659  0.76697  0.74928  1
 V  V2  1  0.53342  0.73303  0.24928  1
 V  V3  1  0.46658  0.26697  0.75072  1
 V  V4  1  0.53341  0.23303  0.25072  1
 V  V5  1  0.00000  0.50000  0.50000  1
 V  V6  1  1.00000  -0.00000  0.50000  1
 V  V7  1  0.00000  0.00000  -0.00000  1
 V  V8  1  1.00000  0.50000  0.00000  1
