CIF file written using JARVIS-Tools package.
data_Li5Mn3O5F3
_symmetry_space_group_name_H-M  'P1'
_cell_length_a       5.72787
_cell_length_b       5.85311
_cell_length_c       5.98286
_cell_angle_alpha    118.258
_cell_angle_beta     117.586
_cell_angle_gamma    91.2417

_symmetry_Int_Tables_number  1
_chemical_formula_structural  Li5Mn3O5F3
_chemical_formula_sum  Li5Mn3O5F3
_cell_volume  148.9491057467244
_cell_formula_units_Z  1
loop_
  _symmetry_equiv_pos_site_id
 _symmetry_equiv_pos_as_xyz
 1  'x, y, z'
loop_
 _atom_site_type_symbol
 _atom_site_label
 _atom_site_symmetry_multiplicity
 _atom_site_fract_x
 _atom_site_fract_y
 _atom_site_fract_z
 _atom_site_fract_occupancy
 F  F1  1  0.65911  0.87830  0.79002  1
 F  F2  1  0.14507  0.89111  0.79165  1
 F  F3  1  0.09129  0.37260  0.71193  1
 Li  Li1  1  0.87773  0.12258  0.24700  1
 Li  Li2  1  0.86443  0.13138  0.74125  1
 Li  Li3  1  0.85411  0.60397  0.72565  1
 Li  Li4  1  0.38801  0.13583  0.27109  1
 Li  Li5  1  0.37798  0.61357  0.74067  1
 Mn  Mn1  1  0.86072  0.61199  0.22039  1
 Mn  Mn2  1  0.37538  0.62653  0.25127  1
 Mn  Mn3  1  0.38326  0.13332  0.74926  1
 O  O1  1  0.60755  0.38653  0.22736  1
 O  O2  1  0.12279  0.40531  0.24962  1
 O  O3  1  0.63132  0.85034  0.25838  1
 O  O4  1  0.61663  0.36864  0.73974  1
 O  O5  1  0.14463  0.86800  0.28471  1
