CIF file written using JARVIS-Tools package.
data_LiV2OF5
_symmetry_space_group_name_H-M  'P1'
_cell_length_a       5.44285
_cell_length_b       7.48825
_cell_length_c       8.67235
_cell_angle_alpha    113.418
_cell_angle_beta     74.4101
_cell_angle_gamma    84.9819

_symmetry_Int_Tables_number  1
_chemical_formula_structural  LiV2OF5
_chemical_formula_sum  Li3V6O3F5
_cell_volume  304.77540125302136
_cell_formula_units_Z  3
loop_
  _symmetry_equiv_pos_site_id
 _symmetry_equiv_pos_as_xyz
 1  'x, y, z'
loop_
 _atom_site_type_symbol
 _atom_site_label
 _atom_site_symmetry_multiplicity
 _atom_site_fract_x
 _atom_site_fract_y
 _atom_site_fract_z
 _atom_site_fract_occupancy
 F  F1  1  0.71899  0.03840  0.57666  1
 F  F2  1  0.10192  0.66460  0.20402  1
 F  F3  1  0.06179  0.70845  0.90629  1
 F  F4  1  0.27747  0.95845  0.42868  1
 F  F5  1  0.94465  0.30742  0.10335  1
 F  F6  1  0.37427  0.36654  0.23359  1
 F  F7  1  0.03776  0.67940  0.52772  1
 F  F8  1  0.62651  0.62945  0.11411  1
 F  F9  1  0.42486  0.33184  0.52757  1
 F  F10  1  0.94793  0.30372  0.46128  1
 F  F11  1  0.62248  0.63368  0.76645  1
 F  F12  1  0.74762  0.00920  0.87942  1
 F  F13  1  0.69945  0.02288  0.20549  1
 F  F14  1  0.90738  0.32142  0.79108  1
 F  F15  1  0.30394  0.98988  0.80913  1
 Li  Li1  1  0.43866  0.20936  0.98288  1
 Li  Li2  1  0.90281  0.46707  0.34968  1
 Li  Li3  1  0.41225  0.72199  0.00669  1
 O  O1  1  0.36560  0.38346  0.86682  1
 O  O2  1  0.57237  0.67975  0.46894  1
 O  O3  1  0.22839  0.01554  0.13608  1
 V  V1  1  0.32703  0.14827  0.32755  1
 V  V2  1  0.00654  0.00134  0.01044  1
 V  V3  1  0.35773  0.66747  0.34347  1
 V  V4  1  0.01866  0.49363  0.98581  1
 V  V5  1  0.66767  0.82643  0.65529  1
 V  V6  1  0.64708  0.32915  0.67479  1
