CIF file written using JARVIS-Tools package.
data_Na3NiBPO7
_symmetry_space_group_name_H-M  'P2_1/m'
_cell_length_a       6.69104
_cell_length_b       5.0724
_cell_length_c       8.74134
_cell_angle_alpha    87.907
_cell_angle_beta     90
_cell_angle_gamma    90

_symmetry_Int_Tables_number  11
_chemical_formula_structural  Na3NiBPO7
_chemical_formula_sum  Na6Ni2B2P2O4
_cell_volume  296.48017176033983
_cell_formula_units_Z  2
loop_
  _symmetry_equiv_pos_site_id
 _symmetry_equiv_pos_as_xyz
 1  'x, y, z'
loop_
 _atom_site_type_symbol
 _atom_site_label
 _atom_site_symmetry_multiplicity
 _atom_site_fract_x
 _atom_site_fract_y
 _atom_site_fract_z
 _atom_site_fract_occupancy
 B  B1  1  0.75000  0.72436  0.07111  1
 B  B2  1  0.25000  0.27564  0.92889  1
 Na  Na1  1  0.25000  0.77275  0.07931  1
 Na  Na2  1  0.00912  0.25413  0.26670  1
 Na  Na3  1  0.75000  0.22725  0.92069  1
 Na  Na4  1  0.50912  0.74587  0.73330  1
 Na  Na5  1  0.99088  0.74587  0.73330  1
 Na  Na6  1  0.49088  0.25413  0.26670  1
 Ni  Ni1  1  0.25000  0.21760  0.66150  1
 Ni  Ni2  1  0.75000  0.78240  0.33850  1
 O  O1  1  0.75000  0.69480  0.91998  1
 O  O2  1  0.75000  0.96553  0.14344  1
 O  O3  1  0.25000  0.03447  0.85656  1
 O  O4  1  0.25000  0.47620  0.81509  1
 O  O5  1  0.93313  0.21355  0.68354  1
 O  O6  1  0.56687  0.21355  0.68354  1
 O  O7  1  0.25000  0.87289  0.56872  1
 O  O8  1  0.75000  0.52380  0.18491  1
 O  O9  1  0.25000  0.41698  0.46387  1
 O  O10  1  0.43313  0.78645  0.31646  1
 O  O11  1  0.06687  0.78645  0.31646  1
 O  O12  1  0.75000  0.58302  0.53613  1
 O  O13  1  0.75000  0.12711  0.43128  1
 O  O14  1  0.25000  0.30520  0.08002  1
 P  P1  1  0.25000  0.72050  0.41963  1
 P  P2  1  0.75000  0.27950  0.58037  1
