CIF file written using JARVIS-Tools package.
data_Ni3OF5
_symmetry_space_group_name_H-M  'P1'
_cell_length_a       5.47707
_cell_length_b       5.58559
_cell_length_c       7.14883
_cell_angle_alpha    72.1389
_cell_angle_beta     73.2444
_cell_angle_gamma    71.6075

_symmetry_Int_Tables_number  1
_chemical_formula_structural  Ni3OF5
_chemical_formula_sum  Ni6O2F0
_cell_volume  193.03575753718548
_cell_formula_units_Z  2
loop_
  _symmetry_equiv_pos_site_id
 _symmetry_equiv_pos_as_xyz
 1  'x, y, z'
loop_
 _atom_site_type_symbol
 _atom_site_label
 _atom_site_symmetry_multiplicity
 _atom_site_fract_x
 _atom_site_fract_y
 _atom_site_fract_z
 _atom_site_fract_occupancy
 F  F1  1  0.62306  0.02253  0.64881  1
 F  F2  1  0.96328  0.36073  0.32125  1
 F  F3  1  0.02337  0.63975  0.68140  1
 F  F4  1  0.07732  0.10650  0.70706  1
 F  F5  1  0.37145  0.98996  0.34718  1
 F  F6  1  0.73920  0.78966  0.03426  1
 F  F7  1  0.26364  0.20802  0.96439  1
 F  F8  1  0.58355  0.54204  0.63482  1
 F  F9  1  0.72058  0.29729  0.01537  1
 F  F10  1  0.41940  0.46762  0.36648  1
 Ni  Ni1  1  0.02149  0.97523  0.01312  1
 Ni  Ni2  1  0.99473  0.99123  0.48691  1
 Ni  Ni3  1  0.64210  0.66813  0.84382  1
 Ni  Ni4  1  0.67898  0.68509  0.33569  1
 Ni  Ni5  1  0.32499  0.33331  0.66472  1
 Ni  Ni6  1  0.33326  0.35629  0.15973  1
 O  O1  1  0.29306  0.68734  -0.01606  1
 O  O2  1  0.92653  0.87929  0.29103  1
