CIF file written using JARVIS-Tools package.
data_MnOF
_symmetry_space_group_name_H-M  'P2_1/c'
_cell_length_a       6.13135
_cell_length_b       4.60657
_cell_length_c       9.15329
_cell_angle_alpha    89.9534
_cell_angle_beta     90
_cell_angle_gamma    90

_symmetry_Int_Tables_number  14
_chemical_formula_structural  MnOF
_chemical_formula_sum  Mn8O8F8
_cell_volume  258.5301562090556
_cell_formula_units_Z  8
loop_
  _symmetry_equiv_pos_site_id
 _symmetry_equiv_pos_as_xyz
 1  'x, y, z'
loop_
 _atom_site_type_symbol
 _atom_site_label
 _atom_site_symmetry_multiplicity
 _atom_site_fract_x
 _atom_site_fract_y
 _atom_site_fract_z
 _atom_site_fract_occupancy
 F  F1  1  0.25482  0.21115  0.37811  1
 F  F2  1  0.50081  0.30927  0.13220  1
 F  F3  1  -0.00081  0.30927  0.63220  1
 F  F4  1  0.00081  0.69073  0.36780  1
 F  F5  1  0.49919  0.69073  0.86780  1
 F  F6  1  0.75482  0.78885  0.12189  1
 F  F7  1  0.74518  0.78885  0.62189  1
 F  F8  1  0.24518  0.21115  0.87811  1
 Mn  Mn1  1  0.00000  0.00000  0.00000  1
 Mn  Mn2  1  0.24820  0.53064  0.23380  1
 Mn  Mn3  1  0.74820  0.46936  0.26620  1
 Mn  Mn4  1  0.25180  0.53064  0.73380  1
 Mn  Mn5  1  0.75180  0.46936  0.76620  1
 Mn  Mn6  1  0.50000  0.00000  0.50000  1
 Mn  Mn7  1  0.00000  0.00000  0.50000  1
 Mn  Mn8  1  0.50000  0.00000  0.00000  1
 O  O1  1  0.74624  0.16604  0.90793  1
 O  O2  1  -0.00140  0.32184  0.15441  1
 O  O3  1  0.49860  0.67816  0.34559  1
 O  O4  1  0.00140  0.67816  0.84559  1
 O  O5  1  0.25376  0.83396  0.09207  1
 O  O6  1  0.24624  0.83396  0.59207  1
 O  O7  1  0.75376  0.16604  0.40793  1
 O  O8  1  0.50140  0.32184  0.65441  1
