CIF file written using JARVIS-Tools package.
data_LiMnF4
_symmetry_space_group_name_H-M  'Pbcn'
_cell_length_a       4.61622
_cell_length_b       5.71196
_cell_length_c       9.9184
_cell_angle_alpha    90
_cell_angle_beta     90
_cell_angle_gamma    90

_symmetry_Int_Tables_number  60
_chemical_formula_structural  LiMnF4
_chemical_formula_sum  Li4Mn4F6
_cell_volume  261.52489860836204
_cell_formula_units_Z  4
loop_
  _symmetry_equiv_pos_site_id
 _symmetry_equiv_pos_as_xyz
 1  'x, y, z'
loop_
 _atom_site_type_symbol
 _atom_site_label
 _atom_site_symmetry_multiplicity
 _atom_site_fract_x
 _atom_site_fract_y
 _atom_site_fract_z
 _atom_site_fract_occupancy
 F  F1  1  0.73911  0.53312  0.67181  1
 F  F2  1  0.20572  0.72112  0.09032  1
 F  F3  1  0.20572  0.27888  0.59032  1
 F  F4  1  0.23911  0.03312  0.82819  1
 F  F5  1  0.79428  0.27888  0.90968  1
 F  F6  1  0.26089  0.53312  0.82819  1
 F  F7  1  0.26089  0.46688  0.32819  1
 F  F8  1  0.23911  0.96688  0.32819  1
 F  F9  1  0.29428  0.22112  0.09032  1
 F  F10  1  0.70572  0.77888  0.90968  1
 F  F11  1  0.70572  0.22112  0.40968  1
 F  F12  1  0.79428  0.72112  0.40968  1
 F  F13  1  0.73911  0.46688  0.17181  1
 F  F14  1  0.76089  0.96688  0.17181  1
 F  F15  1  0.76089  0.03312  0.67181  1
 F  F16  1  0.29428  0.77888  0.59032  1
 Li  Li1  1  0.50000  0.50000  0.00000  1
 Li  Li2  1  0.50000  0.50000  0.50000  1
 Li  Li3  1  0.00000  0.00000  0.00000  1
 Li  Li4  1  0.00000  0.00000  0.50000  1
 Mn  Mn1  1  0.50000  0.20651  0.25000  1
 Mn  Mn2  1  0.50000  0.79349  0.75000  1
 Mn  Mn3  1  0.00000  0.70651  0.25000  1
 Mn  Mn4  1  0.00000  0.29349  0.75000  1
