CIF file written using JARVIS-Tools package.
data_Ca7HfN6
_symmetry_space_group_name_H-M  'Ibam'
_cell_length_a       6.35611
_cell_length_b       9.27793
_cell_length_c       9.27792
_cell_angle_alpha    78.3405
_cell_angle_beta     69.9683
_cell_angle_gamma    69.9684

_symmetry_Int_Tables_number  72
_chemical_formula_structural  Ca7HfN6
_chemical_formula_sum  Ca4Hf2N2
_cell_volume  480.7041235736606
_cell_formula_units_Z  2
loop_
  _symmetry_equiv_pos_site_id
 _symmetry_equiv_pos_as_xyz
 1  'x, y, z'
loop_
 _atom_site_type_symbol
 _atom_site_label
 _atom_site_symmetry_multiplicity
 _atom_site_fract_x
 _atom_site_fract_y
 _atom_site_fract_z
 _atom_site_fract_occupancy
 Ca  Ca1  1  0.28087  0.95722  0.04278  1
 Ca  Ca2  1  0.71913  0.04278  0.95722  1
 Ca  Ca3  1  0.21913  0.45722  0.54278  1
 Ca  Ca4  1  0.78087  0.54278  0.45722  1
 Ca  Ca5  1  0.73734  0.15069  0.60455  1
 Ca  Ca6  1  0.50743  0.60455  0.15069  1
 Ca  Ca7  1  0.75000  0.75000  0.75000  1
 Ca  Ca8  1  0.76266  0.89545  0.34931  1
 Ca  Ca9  1  0.26266  0.84931  0.39545  1
 Ca  Ca10  1  0.49257  0.39545  0.84931  1
 Ca  Ca11  1  0.23734  0.10455  0.65069  1
 Ca  Ca12  1  0.00743  0.65069  0.10455  1
 Ca  Ca13  1  0.25000  0.25000  0.25000  1
 Ca  Ca14  1  0.99257  0.34931  0.89545  1
 Hf  Hf1  1  0.75000  0.25000  0.25000  1
 Hf  Hf2  1  0.25000  0.75000  0.75000  1
 N  N1  1  0.61990  0.84341  0.15659  1
 N  N2  1  0.02680  0.06361  0.28047  1
 N  N3  1  0.47320  0.21953  0.43639  1
 N  N4  1  0.87088  0.43639  0.21953  1
 N  N5  1  0.62912  0.28047  0.06361  1
 N  N6  1  0.88010  0.34341  0.65659  1
 N  N7  1  0.52680  0.78047  0.56361  1
 N  N8  1  0.12912  0.56361  0.78047  1
 N  N9  1  0.11990  0.65659  0.34341  1
 N  N10  1  0.97320  0.93639  0.71953  1
 N  N11  1  0.37088  0.71953  0.93639  1
 N  N12  1  0.38010  0.15659  0.84341  1
