CIF file written using JARVIS-Tools package.
data_Al2FeN3
_symmetry_space_group_name_H-M  'Cmc2_1'
_cell_length_a       5.4962
_cell_length_b       5.49462
_cell_length_c       5.02957
_cell_angle_alpha    90
_cell_angle_beta     90
_cell_angle_gamma    119.99

_symmetry_Int_Tables_number  36
_chemical_formula_structural  Al2FeN3
_chemical_formula_sum  Al4Fe2N6
_cell_volume  131.55391450940007
_cell_formula_units_Z  2
loop_
  _symmetry_equiv_pos_site_id
 _symmetry_equiv_pos_as_xyz
 1  'x, y, z'
loop_
 _atom_site_type_symbol
 _atom_site_label
 _atom_site_symmetry_multiplicity
 _atom_site_fract_x
 _atom_site_fract_y
 _atom_site_fract_z
 _atom_site_fract_occupancy
 Al  Al1  1  0.33568  0.33147  0.49219  1
 Al  Al2  1  0.66432  0.99579  0.49219  1
 Al  Al3  1  0.66432  0.66853  0.99219  1
 Al  Al4  1  0.33568  0.00421  0.99219  1
 Fe  Fe1  1  0.00000  0.66724  0.48396  1
 Fe  Fe2  1  -0.00000  0.33276  0.98396  1
 N  N1  1  0.34622  0.33548  0.87002  1
 N  N2  1  0.65378  0.98926  0.87002  1
 N  N3  1  0.65378  0.66452  0.37002  1
 N  N4  1  0.34622  0.01074  0.37002  1
 N  N5  1  -0.00000  0.68365  0.87963  1
 N  N6  1  0.00000  0.31635  0.37963  1
