CIF file written using JARVIS-Tools package.
data_Co3O4F2
_symmetry_space_group_name_H-M  'Cm'
_cell_length_a       5.27372
_cell_length_b       5.27373
_cell_length_c       7.05963
_cell_angle_alpha    70.9039
_cell_angle_beta     70.9039
_cell_angle_gamma    69.1794

_symmetry_Int_Tables_number  8
_chemical_formula_structural  Co3O4F2
_chemical_formula_sum  Co6O8F4
_cell_volume  168.40821739995334
_cell_formula_units_Z  2
loop_
  _symmetry_equiv_pos_site_id
 _symmetry_equiv_pos_as_xyz
 1  'x, y, z'
loop_
 _atom_site_type_symbol
 _atom_site_label
 _atom_site_symmetry_multiplicity
 _atom_site_fract_x
 _atom_site_fract_y
 _atom_site_fract_z
 _atom_site_fract_occupancy
 Co  Co1  1  0.67353  0.67353  0.84638  1
 Co  Co2  1  0.65732  0.65732  0.31767  1
 Co  Co3  1  0.33864  0.33864  0.65222  1
 Co  Co4  1  0.33817  0.33817  0.17735  1
 Co  Co5  1  0.99732  0.99732  0.49737  1
 Co  Co6  1  0.98975  0.98975  0.99779  1
 F  F1  1  0.57714  0.57714  0.63220  1
 F  F2  1  0.23184  0.23184  0.96433  1
 F  F3  1  0.09798  0.09798  0.69166  1
 F  F4  1  0.89391  0.89391  0.30807  1
 O  O1  1  0.36197  0.96945  0.33424  1
 O  O2  1  0.43552  0.43552  0.36630  1
 O  O3  1  0.63889  0.03439  0.66882  1
 O  O4  1  0.96945  0.36197  0.33424  1
 O  O5  1  0.76520  0.76520  0.03793  1
 O  O6  1  0.69641  0.30257  0.00231  1
 O  O7  1  0.30257  0.69641  0.00231  1
 O  O8  1  0.03439  0.63889  0.66882  1
