CIF file written using JARVIS-Tools package.
data_ZnCoN2
_symmetry_space_group_name_H-M  'Pna2_1'
_cell_length_a       5.43879
_cell_length_b       6.25562
_cell_length_c       5.11636
_cell_angle_alpha    90
_cell_angle_beta     90
_cell_angle_gamma    90

_symmetry_Int_Tables_number  33
_chemical_formula_structural  ZnCoN2
_chemical_formula_sum  Zn4Co4N8
_cell_volume  174.07387407638657
_cell_formula_units_Z  4
loop_
  _symmetry_equiv_pos_site_id
 _symmetry_equiv_pos_as_xyz
 1  'x, y, z'
loop_
 _atom_site_type_symbol
 _atom_site_label
 _atom_site_symmetry_multiplicity
 _atom_site_fract_x
 _atom_site_fract_y
 _atom_site_fract_z
 _atom_site_fract_occupancy
 Co  Co1  1  0.57381  0.37042  0.99892  1
 Co  Co2  1  0.42619  0.62958  0.49892  1
 Co  Co3  1  0.92619  0.87042  0.49892  1
 Co  Co4  1  0.07381  0.12958  0.99892  1
 N  N1  1  0.56474  0.39122  0.35163  1
 N  N2  1  0.43526  0.60878  0.85163  1
 N  N3  1  0.93526  0.89122  0.85163  1
 N  N4  1  0.06474  0.10878  0.35163  1
 N  N5  1  0.60640  0.85842  0.39886  1
 N  N6  1  0.39360  0.14158  0.89886  1
 N  N7  1  0.89360  0.35842  0.89886  1
 N  N8  1  0.10640  0.64158  0.39886  1
 Zn  Zn1  1  0.58880  0.87799  0.00059  1
 Zn  Zn2  1  0.41120  0.12201  0.50059  1
 Zn  Zn3  1  0.91120  0.37799  0.50059  1
 Zn  Zn4  1  0.08880  0.62201  0.00059  1
