CIF file written using JARVIS-Tools package.
data_Li2O
_symmetry_space_group_name_H-M  'P4/mmm'
_cell_length_a       8.80149
_cell_length_b       8.80149
_cell_length_c       10.5286
_cell_angle_alpha    90
_cell_angle_beta     90
_cell_angle_gamma    90

_symmetry_Int_Tables_number  123
_chemical_formula_structural  Li2O
_chemical_formula_sum  Li2O
_cell_volume  815.6105285080888
_cell_formula_units_Z  1
loop_
  _symmetry_equiv_pos_site_id
 _symmetry_equiv_pos_as_xyz
 1  'x, y, z'
loop_
 _atom_site_type_symbol
 _atom_site_label
 _atom_site_symmetry_multiplicity
 _atom_site_fract_x
 _atom_site_fract_y
 _atom_site_fract_z
 _atom_site_fract_occupancy
 Li  Li1  1  0.00000  0.00000  0.15422  1
 Li  Li2  1  0.00000  0.00000  0.84578  1
 O  O1  1  0.00000  0.00000  0.00000  1
