CIF file written using JARVIS-Tools package.
data_Mn3O5F
_symmetry_space_group_name_H-M  'Cm'
_cell_length_a       5.36983
_cell_length_b       5.36983
_cell_length_c       7.11027
_cell_angle_alpha    71.1644
_cell_angle_beta     71.1644
_cell_angle_gamma    71.2096

_symmetry_Int_Tables_number  8
_chemical_formula_structural  Mn3O5F
_chemical_formula_sum  Mn6O0F2
_cell_volume  178.13936964972592
_cell_formula_units_Z  2
loop_
  _symmetry_equiv_pos_site_id
 _symmetry_equiv_pos_as_xyz
 1  'x, y, z'
loop_
 _atom_site_type_symbol
 _atom_site_label
 _atom_site_symmetry_multiplicity
 _atom_site_fract_x
 _atom_site_fract_y
 _atom_site_fract_z
 _atom_site_fract_occupancy
 F  F1  1  0.43241  0.43241  0.36627  1
 F  F2  1  0.10388  0.10388  0.70050  1
 Mn  Mn1  1  0.99402  0.99402  0.00965  1
 Mn  Mn2  1  0.99589  0.99589  0.49174  1
 Mn  Mn3  1  0.32614  0.32614  0.15534  1
 Mn  Mn4  1  0.34510  0.34510  0.68127  1
 Mn  Mn5  1  0.67340  0.67340  0.33253  1
 Mn  Mn6  1  0.66928  0.66928  0.83748  1
 O  O1  1  0.30252  0.69264  -0.00060  1
 O  O2  1  0.69264  0.30252  -0.00060  1
 O  O3  1  0.03204  0.63801  0.66604  1
 O  O4  1  0.57016  0.57016  0.62760  1
 O  O5  1  0.76752  0.76752  0.03890  1
 O  O6  1  0.89719  0.89719  0.29662  1
 O  O7  1  0.63801  0.03204  0.66604  1
 O  O8  1  0.97102  0.36128  0.33267  1
 O  O9  1  0.22750  0.22750  0.96586  1
 O  O10  1  0.36128  0.97102  0.33267  1
