CIF file written using JARVIS-Tools package.
data_Zn3Ga2N4
_symmetry_space_group_name_H-M  'C2/c'
_cell_length_a       6.4104
_cell_length_b       9.38255
_cell_length_c       5.35532
_cell_angle_alpha    90
_cell_angle_beta     94.0996
_cell_angle_gamma    137.039

_symmetry_Int_Tables_number  15
_chemical_formula_structural  Zn3Ga2N4
_chemical_formula_sum  Zn6Ga4N8
_cell_volume  218.2989150782525
_cell_formula_units_Z  2
loop_
  _symmetry_equiv_pos_site_id
 _symmetry_equiv_pos_as_xyz
 1  'x, y, z'
loop_
 _atom_site_type_symbol
 _atom_site_label
 _atom_site_symmetry_multiplicity
 _atom_site_fract_x
 _atom_site_fract_y
 _atom_site_fract_z
 _atom_site_fract_occupancy
 Ga  Ga1  1  0.57378  0.17482  0.63428  1
 Ga  Ga2  1  0.57378  0.39896  0.13428  1
 Ga  Ga3  1  0.42622  0.82518  0.36572  1
 Ga  Ga4  1  0.42622  0.60104  0.86572  1
 N  N1  1  0.62275  0.23034  0.00521  1
 N  N2  1  0.20109  0.31210  0.98728  1
 N  N3  1  0.79891  0.11101  0.51272  1
 N  N4  1  0.79891  0.68790  0.01272  1
 N  N5  1  0.20109  0.88899  0.48728  1
 N  N6  1  0.37725  0.76966  0.99479  1
 N  N7  1  0.62275  0.39241  0.50521  1
 N  N8  1  0.37725  0.60759  0.49479  1
 Zn  Zn1  1  0.00000  0.34284  0.25000  1
 Zn  Zn2  1  -0.00000  0.65716  0.75000  1
 Zn  Zn3  1  0.22847  0.26602  0.59954  1
 Zn  Zn4  1  0.77153  0.03755  0.90046  1
 Zn  Zn5  1  0.77153  0.73398  0.40046  1
 Zn  Zn6  1  0.22847  0.96245  0.09954  1
