CIF file written using JARVIS-Tools package.
data_ZrGa6Fe6
_symmetry_space_group_name_H-M  'Immm'
_cell_length_a       6.48599
_cell_length_b       6.48599
_cell_length_c       6.486
_cell_angle_alpha    134.775
_cell_angle_beta     99.7072
_cell_angle_gamma    97.3

_symmetry_Int_Tables_number  71
_chemical_formula_structural  ZrGa6Fe6
_chemical_formula_sum  ZrGa6Fe6
_cell_volume  178.75040267045085
_cell_formula_units_Z  1
loop_
  _symmetry_equiv_pos_site_id
 _symmetry_equiv_pos_as_xyz
 1  'x, y, z'
loop_
 _atom_site_type_symbol
 _atom_site_label
 _atom_site_symmetry_multiplicity
 _atom_site_fract_x
 _atom_site_fract_y
 _atom_site_fract_z
 _atom_site_fract_occupancy
 Fe  Fe1  1  0.75551  0.50000  0.25551  1
 Fe  Fe2  1  0.24449  0.50000  0.74449  1
 Fe  Fe3  1  -0.00000  0.00000  0.50000  1
 Fe  Fe4  1  0.00000  0.50000  0.00000  1
 Fe  Fe5  1  0.50000  0.00000  0.00000  1
 Fe  Fe6  1  0.50000  0.50000  0.50000  1
 Ga  Ga1  1  0.33049  0.00000  0.33049  1
 Ga  Ga2  1  0.66951  -0.00000  0.66951  1
 Ga  Ga3  1  0.65943  0.65943  -0.00000  1
 Ga  Ga4  1  0.34057  0.34057  0.00000  1
 Ga  Ga5  1  0.17510  0.67510  0.50000  1
 Ga  Ga6  1  0.82490  0.32490  0.50000  1
 Zr  Zr1  1  0.00000  0.00000  0.00000  1
