CIF file written using JARVIS-Tools package.
data_AlN3
_symmetry_space_group_name_H-M  'P1'
_cell_length_a       4.16306
_cell_length_b       3.22759
_cell_length_c       4.15148
_cell_angle_alpha    77.1443
_cell_angle_beta     85.1957
_cell_angle_gamma    95.531

_symmetry_Int_Tables_number  1
_chemical_formula_structural  AlN3
_chemical_formula_sum  AlN3
_cell_volume  53.81142242642843
_cell_formula_units_Z  1
loop_
  _symmetry_equiv_pos_site_id
 _symmetry_equiv_pos_as_xyz
 1  'x, y, z'
loop_
 _atom_site_type_symbol
 _atom_site_label
 _atom_site_symmetry_multiplicity
 _atom_site_fract_x
 _atom_site_fract_y
 _atom_site_fract_z
 _atom_site_fract_occupancy
 Al  Al1  1  0.17767  0.50190  0.60526  1
 N  N1  1  0.15385  -0.04911  0.77227  1
 N  N2  1  0.57298  0.61320  0.27961  1
 N  N3  1  -0.15138  0.62124  0.27230  1
