CIF file written using JARVIS-Tools package.
data_BiOF
_symmetry_space_group_name_H-M  'R-3m'
_cell_length_a       7.12152
_cell_length_b       7.12152
_cell_length_c       7.12152
_cell_angle_alpha    32.5494
_cell_angle_beta     32.5494
_cell_angle_gamma    32.5493

_symmetry_Int_Tables_number  166
_chemical_formula_structural  BiOF
_chemical_formula_sum  Bi2O2F2
_cell_volume  92.973328298289
_cell_formula_units_Z  2
loop_
  _symmetry_equiv_pos_site_id
 _symmetry_equiv_pos_as_xyz
 1  'x, y, z'
loop_
 _atom_site_type_symbol
 _atom_site_label
 _atom_site_symmetry_multiplicity
 _atom_site_fract_x
 _atom_site_fract_y
 _atom_site_fract_z
 _atom_site_fract_occupancy
 Bi  Bi1  1  0.24013  0.24013  0.24013  1
 Bi  Bi2  1  0.75987  0.75987  0.75987  1
 F  F1  1  0.62383  0.62383  0.62383  1
 F  F2  1  0.37617  0.37617  0.37617  1
 O  O1  1  0.87282  0.87282  0.87282  1
 O  O2  1  0.12718  0.12718  0.12718  1
