CIF file written using JARVIS-Tools package.
data_Ca3Co3N5
_symmetry_space_group_name_H-M  'P-1'
_cell_length_a       5.53012
_cell_length_b       6.71279
_cell_length_c       8.24987
_cell_angle_alpha    108.722
_cell_angle_beta     104.959
_cell_angle_gamma    95.0611

_symmetry_Int_Tables_number  2
_chemical_formula_structural  Ca3Co3N5
_chemical_formula_sum  Ca6Co6N0
_cell_volume  275.27964267750974
_cell_formula_units_Z  2
loop_
  _symmetry_equiv_pos_site_id
 _symmetry_equiv_pos_as_xyz
 1  'x, y, z'
loop_
 _atom_site_type_symbol
 _atom_site_label
 _atom_site_symmetry_multiplicity
 _atom_site_fract_x
 _atom_site_fract_y
 _atom_site_fract_z
 _atom_site_fract_occupancy
 Ca  Ca1  1  0.81369  0.40947  0.61034  1
 Ca  Ca2  1  0.18631  0.59053  0.38966  1
 Ca  Ca3  1  0.65886  0.86940  0.87238  1
 Ca  Ca4  1  0.34114  0.13060  0.12762  1
 Ca  Ca5  1  0.65947  0.66636  0.19981  1
 Ca  Ca6  1  0.34053  0.33364  0.80019  1
 Co  Co1  1  0.68633  0.94600  0.56123  1
 Co  Co2  1  0.08804  0.67939  0.02630  1
 Co  Co3  1  0.91196  0.32061  0.97370  1
 Co  Co4  1  0.31367  0.05400  0.43877  1
 Co  Co5  1  0.89632  0.11930  0.28880  1
 Co  Co6  1  0.10368  0.88070  0.71120  1
 N  N1  1  0.62652  0.05064  0.37428  1
 N  N2  1  0.23146  0.76650  0.88246  1
 N  N3  1  0.93552  0.11188  0.77721  1
 N  N4  1  0.06448  0.88812  0.22279  1
 N  N5  1  0.82278  0.69656  0.51127  1
 N  N6  1  0.17722  0.30344  0.48873  1
 N  N7  1  0.74747  0.53459  0.90301  1
 N  N8  1  0.25253  0.46541  0.09699  1
 N  N9  1  0.37348  0.94936  0.62572  1
 N  N10  1  0.76854  0.23350  0.11754  1
