CIF file written using JARVIS-Tools package.
data_VCuO3
_symmetry_space_group_name_H-M  'Im-3'
_cell_length_a       6.29974
_cell_length_b       6.29974
_cell_length_c       6.29974
_cell_angle_alpha    109.471
_cell_angle_beta     109.471
_cell_angle_gamma    109.471

_symmetry_Int_Tables_number  204
_chemical_formula_structural  VCuO3
_chemical_formula_sum  V4Cu4O2
_cell_volume  192.46224934364704
_cell_formula_units_Z  4
loop_
  _symmetry_equiv_pos_site_id
 _symmetry_equiv_pos_as_xyz
 1  'x, y, z'
loop_
 _atom_site_type_symbol
 _atom_site_label
 _atom_site_symmetry_multiplicity
 _atom_site_fract_x
 _atom_site_fract_y
 _atom_site_fract_z
 _atom_site_fract_occupancy
 Cu  Cu1  1  0.00000  0.00000  0.00000  1
 Cu  Cu2  1  0.50000  0.00000  0.50000  1
 Cu  Cu3  1  -0.00000  0.50000  0.50000  1
 Cu  Cu4  1  0.50000  0.50000  -0.00000  1
 O  O1  1  0.81553  0.30232  0.11785  1
 O  O2  1  0.30232  0.11785  0.81553  1
 O  O3  1  0.81553  0.69768  0.51321  1
 O  O4  1  0.69768  0.51321  0.81553  1
 O  O5  1  0.30232  0.48679  0.18447  1
 O  O6  1  0.69768  0.88215  0.18447  1
 O  O7  1  0.88215  0.18447  0.69768  1
 O  O8  1  0.18447  0.30232  0.48679  1
 O  O9  1  0.48679  0.18447  0.30232  1
 O  O10  1  0.11785  0.81553  0.30232  1
 O  O11  1  0.18447  0.69768  0.88215  1
 O  O12  1  0.51321  0.81553  0.69768  1
 V  V1  1  0.50000  0.50000  0.50000  1
 V  V2  1  -0.00000  0.50000  -0.00000  1
 V  V3  1  0.50000  0.00000  -0.00000  1
 V  V4  1  0.00000  0.00000  0.50000  1
