CIF file written using JARVIS-Tools package.
data_Li2Sb
_symmetry_space_group_name_H-M  'Immm'
_cell_length_a       3.29359
_cell_length_b       4.83614
_cell_length_c       4.82901
_cell_angle_alpha    60.0479
_cell_angle_beta     90.0008
_cell_angle_gamma    109.94

_symmetry_Int_Tables_number  71
_chemical_formula_structural  Li2Sb
_chemical_formula_sum  Li2Sb
_cell_volume  61.26509234849007
_cell_formula_units_Z  1
loop_
  _symmetry_equiv_pos_site_id
 _symmetry_equiv_pos_as_xyz
 1  'x, y, z'
loop_
 _atom_site_type_symbol
 _atom_site_label
 _atom_site_symmetry_multiplicity
 _atom_site_fract_x
 _atom_site_fract_y
 _atom_site_fract_z
 _atom_site_fract_occupancy
 Li  Li1  1  0.13545  0.43259  0.32675  1
 Li  Li2  1  0.75041  0.66039  0.71285  1
 Sb  Sb1  1  0.94293  0.04649  0.01979  1
