CIF file written using JARVIS-Tools package.
data_LiCoBO3
_symmetry_space_group_name_H-M  'P-6'
_cell_length_a       8.19182
_cell_length_b       8.19182
_cell_length_c       3.00966
_cell_angle_alpha    90
_cell_angle_beta     90
_cell_angle_gamma    120

_symmetry_Int_Tables_number  174
_chemical_formula_structural  LiCoBO3
_chemical_formula_sum  Li3Co3B3O9
_cell_volume  174.90762601604925
_cell_formula_units_Z  3
loop_
  _symmetry_equiv_pos_site_id
 _symmetry_equiv_pos_as_xyz
 1  'x, y, z'
loop_
 _atom_site_type_symbol
 _atom_site_label
 _atom_site_symmetry_multiplicity
 _atom_site_fract_x
 _atom_site_fract_y
 _atom_site_fract_z
 _atom_site_fract_occupancy
 B  B1  1  0.00000  0.00000  0.50000  1
 B  B2  1  0.33333  0.66667  0.50000  1
 B  B3  1  0.66667  0.33333  0.00000  1
 Co  Co1  1  0.96313  0.31926  0.50000  1
 Co  Co2  1  0.68074  0.64388  0.50000  1
 Co  Co3  1  0.35612  0.03687  0.50000  1
 Li  Li1  1  0.04384  0.69639  0.00000  1
 Li  Li2  1  0.30361  0.34745  0.00000  1
 Li  Li3  1  0.65255  0.95616  0.00000  1
 O  O1  1  0.47098  0.22839  0.00000  1
 O  O2  1  0.44637  0.86115  0.50000  1
 O  O3  1  0.77161  0.24259  0.00000  1
 O  O4  1  0.80592  0.91630  0.50000  1
 O  O5  1  0.75741  0.52902  0.00000  1
 O  O6  1  0.11038  0.19408  0.50000  1
 O  O7  1  0.08370  0.88962  0.50000  1
 O  O8  1  0.13885  0.58521  0.50000  1
 O  O9  1  0.41479  0.55363  0.50000  1
