CIF file written using JARVIS-Tools package.
data_Zn8Fe3N8
_symmetry_space_group_name_H-M  'C2/m'
_cell_length_a       11.0093
_cell_length_b       3.43454
_cell_length_c       7.82896
_cell_angle_alpha    90
_cell_angle_beta     68.4093
_cell_angle_gamma    81.0262

_symmetry_Int_Tables_number  12
_chemical_formula_structural  Zn8Fe3N8
_chemical_formula_sum  Zn8Fe3N8
_cell_volume  271.3563470931809
_cell_formula_units_Z  1
loop_
  _symmetry_equiv_pos_site_id
 _symmetry_equiv_pos_as_xyz
 1  'x, y, z'
loop_
 _atom_site_type_symbol
 _atom_site_label
 _atom_site_symmetry_multiplicity
 _atom_site_fract_x
 _atom_site_fract_y
 _atom_site_fract_z
 _atom_site_fract_occupancy
 Fe  Fe1  1  0.36745  0.81627  0.80106  1
 Fe  Fe2  1  -0.00000  0.50000  0.50000  1
 Fe  Fe3  1  0.63255  0.18373  0.19894  1
 N  N1  1  0.46003  0.26998  0.21504  1
 N  N2  1  0.53997  0.73002  0.78496  1
 N  N3  1  0.69161  0.15419  0.38651  1
 N  N4  1  0.30839  0.84581  0.61349  1
 N  N5  1  0.73953  0.13024  0.96020  1
 N  N6  1  0.26047  0.86976  0.03980  1
 N  N7  1  0.97810  0.51095  0.27485  1
 N  N8  1  0.02190  0.48905  0.72515  1
 Zn  Zn1  1  0.39992  0.80004  0.14779  1
 Zn  Zn2  1  0.60008  0.19996  0.85221  1
 Zn  Zn3  1  0.16343  0.41829  0.11197  1
 Zn  Zn4  1  0.83657  0.58171  0.88803  1
 Zn  Zn5  1  0.36127  0.31936  0.48872  1
 Zn  Zn6  1  0.63873  0.68064  0.51128  1
 Zn  Zn7  1  0.88960  0.05520  0.30068  1
 Zn  Zn8  1  0.11040  0.94480  0.69932  1
