CIF file written using JARVIS-Tools package.
data_Na2AlO2
_symmetry_space_group_name_H-M  'Immm'
_cell_length_a       5.64736
_cell_length_b       5.64736
_cell_length_c       5.64736
_cell_angle_alpha    151.366
_cell_angle_beta     127.858
_cell_angle_gamma    60.5671

_symmetry_Int_Tables_number  71
_chemical_formula_structural  Na2AlO2
_chemical_formula_sum  Na2AlO2
_cell_volume  67.61146381570751
_cell_formula_units_Z  1
loop_
  _symmetry_equiv_pos_site_id
 _symmetry_equiv_pos_as_xyz
 1  'x, y, z'
loop_
 _atom_site_type_symbol
 _atom_site_label
 _atom_site_symmetry_multiplicity
 _atom_site_fract_x
 _atom_site_fract_y
 _atom_site_fract_z
 _atom_site_fract_occupancy
 Al  Al1  1  0.00000  0.50000  0.50000  1
 Na  Na1  1  0.32059  0.82059  0.50000  1
 Na  Na2  1  0.67941  0.17941  0.50000  1
 O  O1  1  0.12827  0.12827  0.00000  1
 O  O2  1  0.87173  0.87173  0.00000  1
