CIF file written using JARVIS-Tools package.
data_LiCrPO4
_symmetry_space_group_name_H-M  'P2_12_12_1'
_cell_length_a       4.72262
_cell_length_b       6.27672
_cell_length_c       10.1225
_cell_angle_alpha    89.999
_cell_angle_beta     90.0014
_cell_angle_gamma    89.9991

_symmetry_Int_Tables_number  19
_chemical_formula_structural  LiCrPO4
_chemical_formula_sum  Li4Cr4P4O6
_cell_volume  300.0575548628635
_cell_formula_units_Z  4
loop_
  _symmetry_equiv_pos_site_id
 _symmetry_equiv_pos_as_xyz
 1  'x, y, z'
loop_
 _atom_site_type_symbol
 _atom_site_label
 _atom_site_symmetry_multiplicity
 _atom_site_fract_x
 _atom_site_fract_y
 _atom_site_fract_z
 _atom_site_fract_occupancy
 Cr  Cr1  1  0.79494  0.50199  0.07869  1
 Cr  Cr2  1  0.20506  0.49802  0.57869  1
 Cr  Cr3  1  0.29490  -0.00193  0.01545  1
 Cr  Cr4  1  0.70510  0.00193  0.51545  1
 Li  Li1  1  0.25126  0.27014  0.29760  1
 Li  Li2  1  0.74875  0.72986  0.79760  1
 Li  Li3  1  0.75123  0.22984  0.79654  1
 Li  Li4  1  0.24877  0.77016  0.29653  1
 O  O1  1  0.05217  0.98848  0.85030  1
 O  O2  1  -0.02088  0.83076  0.13108  1
 O  O3  1  0.02087  0.16924  0.63108  1
 O  O4  1  0.94783  0.01151  0.35030  1
 O  O5  1  0.51073  0.01529  0.19665  1
 O  O6  1  0.52084  0.33072  0.46300  1
 O  O7  1  0.03071  0.77183  0.64626  1
 O  O8  1  0.48927  0.98470  0.69665  1
 O  O9  1  0.46933  0.27186  0.94792  1
 O  O10  1  0.01076  0.48472  0.89750  1
 O  O11  1  0.55219  0.51162  0.24382  1
 O  O12  1  0.44781  0.48838  0.74382  1
 O  O13  1  0.96929  0.22817  0.14625  1
 O  O14  1  0.98924  0.51529  0.39749  1
 O  O15  1  0.53067  0.72814  0.44791  1
 O  O16  1  0.47915  0.66929  0.96300  1
 P  P1  1  0.83708  0.02150  0.20519  1
 P  P2  1  0.16292  0.97850  0.70519  1
 P  P3  1  0.33710  0.47851  0.88894  1
 P  P4  1  0.66290  0.52150  0.38894  1
