CIF file written using JARVIS-Tools package.
data_ScMoN3
_symmetry_space_group_name_H-M  'P-1'
_cell_length_a       10.8075
_cell_length_b       5.50664
_cell_length_c       6.47698
_cell_angle_alpha    92.8527
_cell_angle_beta     100.755
_cell_angle_gamma    134.6

_symmetry_Int_Tables_number  2
_chemical_formula_structural  ScMoN3
_chemical_formula_sum  Sc4Mo4N2
_cell_volume  260.4789474579473
_cell_formula_units_Z  4
loop_
  _symmetry_equiv_pos_site_id
 _symmetry_equiv_pos_as_xyz
 1  'x, y, z'
loop_
 _atom_site_type_symbol
 _atom_site_label
 _atom_site_symmetry_multiplicity
 _atom_site_fract_x
 _atom_site_fract_y
 _atom_site_fract_z
 _atom_site_fract_occupancy
 Mo  Mo1  1  -0.02208  0.77158  0.66216  1
 Mo  Mo2  1  0.02208  0.22842  0.33784  1
 Mo  Mo3  1  0.57546  0.94423  0.19406  1
 Mo  Mo4  1  0.42454  0.05577  0.80594  1
 N  N1  1  0.75807  0.89331  0.18821  1
 N  N2  1  0.90514  0.99100  0.63916  1
 N  N3  1  0.55869  0.44121  0.69394  1
 N  N4  1  0.76154  0.34454  0.41572  1
 N  N5  1  0.23846  0.65546  0.58428  1
 N  N6  1  0.09486  0.00900  0.36084  1
 N  N7  1  0.08343  0.42872  0.11927  1
 N  N8  1  0.44131  0.55879  0.30606  1
 N  N9  1  0.43561  0.05095  0.12913  1
 N  N10  1  0.91657  0.57128  0.88073  1
 N  N11  1  0.24193  0.10669  0.81179  1
 N  N12  1  0.56439  0.94905  0.87087  1
 Sc  Sc1  1  0.19480  -0.05030  0.11063  1
 Sc  Sc2  1  0.80520  0.05030  0.88937  1
 Sc  Sc3  1  0.36462  0.46643  0.61129  1
 Sc  Sc4  1  0.63538  0.53357  0.38871  1
