CIF file written using JARVIS-Tools package.
data_CuGe2N3
_symmetry_space_group_name_H-M  'Cmc2_1'
_cell_length_a       5.52622
_cell_length_b       5.52917
_cell_length_c       5.22058
_cell_angle_alpha    90
_cell_angle_beta     90
_cell_angle_gamma    120.018

_symmetry_Int_Tables_number  36
_chemical_formula_structural  CuGe2N3
_chemical_formula_sum  Cu2Ge4N6
_cell_volume  138.12122363128134
_cell_formula_units_Z  2
loop_
  _symmetry_equiv_pos_site_id
 _symmetry_equiv_pos_as_xyz
 1  'x, y, z'
loop_
 _atom_site_type_symbol
 _atom_site_label
 _atom_site_symmetry_multiplicity
 _atom_site_fract_x
 _atom_site_fract_y
 _atom_site_fract_z
 _atom_site_fract_occupancy
 Cu  Cu1  1  -0.00000  0.66164  0.50285  1
 Cu  Cu2  1  0.00000  0.33836  0.00285  1
 Ge  Ge1  1  0.32860  0.33081  0.49214  1
 Ge  Ge2  1  0.67140  0.00221  0.49214  1
 Ge  Ge3  1  0.67140  0.66919  0.99214  1
 Ge  Ge4  1  0.32860  0.99779  0.99214  1
 N  N1  1  0.36904  0.33478  0.85549  1
 N  N2  1  0.63096  0.96574  0.85549  1
 N  N3  1  0.63096  0.66522  0.35549  1
 N  N4  1  0.36904  0.03426  0.35549  1
 N  N5  1  -0.00000  0.69470  0.88988  1
 N  N6  1  0.00000  0.30530  0.38988  1
