CIF file written using JARVIS-Tools package.
data_NaAlO
_symmetry_space_group_name_H-M  'Amm2'
_cell_length_a       5.78885
_cell_length_b       5.78906
_cell_length_c       3.31908
_cell_angle_alpha    90
_cell_angle_beta     90
_cell_angle_gamma    151.044

_symmetry_Int_Tables_number  38
_chemical_formula_structural  NaAlO
_chemical_formula_sum  NaAlO
_cell_volume  53.849856788122075
_cell_formula_units_Z  1
loop_
  _symmetry_equiv_pos_site_id
 _symmetry_equiv_pos_as_xyz
 1  'x, y, z'
loop_
 _atom_site_type_symbol
 _atom_site_label
 _atom_site_symmetry_multiplicity
 _atom_site_fract_x
 _atom_site_fract_y
 _atom_site_fract_z
 _atom_site_fract_occupancy
 Al  Al1  1  0.28555  0.04795  0.00000  1
 Na  Na1  1  0.02657  0.30648  0.00000  1
 O  O1  1  0.68788  0.64557  0.00000  1
