CIF file written using JARVIS-Tools package.
data_Na2W2O7
_symmetry_space_group_name_H-M  'Cmc2_1'
_cell_length_a       3.83933
_cell_length_b       5.47518
_cell_length_c       13.5032
_cell_angle_alpha    90
_cell_angle_beta     98.173
_cell_angle_gamma    90

_symmetry_Int_Tables_number  36
_chemical_formula_structural  Na2W2O7
_chemical_formula_sum  Na4W4O4
_cell_volume  280.967773725017
_cell_formula_units_Z  2
loop_
  _symmetry_equiv_pos_site_id
 _symmetry_equiv_pos_as_xyz
 1  'x, y, z'
loop_
 _atom_site_type_symbol
 _atom_site_label
 _atom_site_symmetry_multiplicity
 _atom_site_fract_x
 _atom_site_fract_y
 _atom_site_fract_z
 _atom_site_fract_occupancy
 Na  Na1  1  0.78663  0.55706  0.57327  1
 Na  Na2  1  0.21337  0.05706  0.42673  1
 Na  Na3  1  0.05108  0.60651  0.10216  1
 Na  Na4  1  0.94892  0.10651  0.89784  1
 O  O1  1  0.30737  0.80679  0.61474  1
 O  O2  1  0.69263  0.30679  0.38526  1
 O  O3  1  0.58927  0.41011  0.17853  1
 O  O4  1  0.04760  0.12208  0.09521  1
 O  O5  1  0.28829  0.29179  0.57658  1
 O  O6  1  0.95240  0.62208  0.90479  1
 O  O7  1  0.85272  0.10921  0.70544  1
 O  O8  1  0.14728  0.60920  0.29456  1
 O  O9  1  0.39052  0.41317  0.78103  1
 O  O10  1  0.71171  0.79179  0.42342  1
 O  O11  1  0.49037  0.33262  0.98075  1
 O  O12  1  0.41073  0.91012  0.82147  1
 O  O13  1  0.60949  0.91317  0.21897  1
 O  O14  1  0.50963  0.83262  0.01925  1
 W  W1  1  0.55486  0.10639  0.10972  1
 W  W2  1  0.44514  0.60639  0.89028  1
 W  W3  1  0.65966  0.58575  0.31933  1
 W  W4  1  0.34034  0.08575  0.68067  1
