CIF file written using JARVIS-Tools package.
data_NaAlP
_symmetry_space_group_name_H-M  'P4/nmm'
_cell_length_a       4.3766
_cell_length_b       4.3766
_cell_length_c       6.62009
_cell_angle_alpha    90
_cell_angle_beta     90
_cell_angle_gamma    90

_symmetry_Int_Tables_number  129
_chemical_formula_structural  NaAlP
_chemical_formula_sum  Na2Al2P2
_cell_volume  126.805253585843
_cell_formula_units_Z  2
loop_
  _symmetry_equiv_pos_site_id
 _symmetry_equiv_pos_as_xyz
 1  'x, y, z'
loop_
 _atom_site_type_symbol
 _atom_site_label
 _atom_site_symmetry_multiplicity
 _atom_site_fract_x
 _atom_site_fract_y
 _atom_site_fract_z
 _atom_site_fract_occupancy
 Al  Al1  1  0.00000  0.00000  0.00000  1
 Al  Al2  1  0.50000  0.50000  0.00000  1
 Na  Na1  1  0.00000  0.50000  0.63154  1
 Na  Na2  1  0.50000  0.00000  0.36846  1
 P  P1  1  0.00000  0.50000  0.19020  1
 P  P2  1  0.50000  0.00000  0.80980  1
