CIF file written using JARVIS-Tools package.
data_NaAlP
_symmetry_space_group_name_H-M  'Amm2'
_cell_length_a       6.37585
_cell_length_b       3.80529
_cell_length_c       2.83195
_cell_angle_alpha    90
_cell_angle_beta     90
_cell_angle_gamma    72.6481

_symmetry_Int_Tables_number  38
_chemical_formula_structural  NaAlP
_chemical_formula_sum  NaAlP
_cell_volume  65.58181838896031
_cell_formula_units_Z  1
loop_
  _symmetry_equiv_pos_site_id
 _symmetry_equiv_pos_as_xyz
 1  'x, y, z'
loop_
 _atom_site_type_symbol
 _atom_site_label
 _atom_site_symmetry_multiplicity
 _atom_site_fract_x
 _atom_site_fract_y
 _atom_site_fract_z
 _atom_site_fract_occupancy
 Al  Al1  1  -0.18235  0.06048  0.00000  1
 Na  Na1  1  0.40025  -0.23075  0.00000  1
 P  P1  1  0.05412  0.44229  0.00000  1
