CIF file written using JARVIS-Tools package.
data_Sm3Mg2TiS8
_symmetry_space_group_name_H-M  'R-3m'
_cell_length_a       7.89667
_cell_length_b       7.78214
_cell_length_c       7.89661
_cell_angle_alpha    59.5121
_cell_angle_beta     60.0011
_cell_angle_gamma    59.5117

_symmetry_Int_Tables_number  166
_chemical_formula_structural  Sm3Mg2TiS8
_chemical_formula_sum  Sm3Mg2TiS8
_cell_volume  340.5869798243794
_cell_formula_units_Z  1
loop_
  _symmetry_equiv_pos_site_id
 _symmetry_equiv_pos_as_xyz
 1  'x, y, z'
loop_
 _atom_site_type_symbol
 _atom_site_label
 _atom_site_symmetry_multiplicity
 _atom_site_fract_x
 _atom_site_fract_y
 _atom_site_fract_z
 _atom_site_fract_occupancy
 Mg  Mg1  1  0.87554  0.87339  0.87554  1
 Mg  Mg2  1  0.12446  0.12661  0.12446  1
 S  S1  1  0.73200  0.77113  0.73201  1
 S  S2  1  0.26801  0.22886  0.73514  1
 S  S3  1  0.25239  0.74283  0.25239  1
 S  S4  1  0.73514  0.22887  0.26800  1
 S  S5  1  0.74761  0.25717  0.74761  1
 S  S6  1  0.26486  0.77114  0.73200  1
 S  S7  1  0.26800  0.22886  0.26801  1
 S  S8  1  0.73201  0.77114  0.26486  1
 Sm  Sm1  1  0.50000  0.50001  0.49999  1
 Sm  Sm2  1  0.50000  0.49999  0.00000  1
 Sm  Sm3  1  0.00000  0.50000  0.50001  1
 Ti  Ti1  1  0.50000  1.00000  0.50000  1
