CIF file written using JARVIS-Tools package.
data_NbCr3Ag2S8
_symmetry_space_group_name_H-M  'Pmn2_1'
_cell_length_a       11.2014
_cell_length_b       3.46471
_cell_length_c       12.8454
_cell_angle_alpha    90
_cell_angle_beta     90
_cell_angle_gamma    90

_symmetry_Int_Tables_number  31
_chemical_formula_structural  NbCr3Ag2S8
_chemical_formula_sum  Nb2Cr6Ag4S6
_cell_volume  498.52326643693385
_cell_formula_units_Z  2
loop_
  _symmetry_equiv_pos_site_id
 _symmetry_equiv_pos_as_xyz
 1  'x, y, z'
loop_
 _atom_site_type_symbol
 _atom_site_label
 _atom_site_symmetry_multiplicity
 _atom_site_fract_x
 _atom_site_fract_y
 _atom_site_fract_z
 _atom_site_fract_occupancy
 Ag  Ag1  1  0.26112  0.75000  0.82829  1
 Ag  Ag2  1  0.23888  0.25000  0.32829  1
 Ag  Ag3  1  0.72661  0.25000  0.18215  1
 Ag  Ag4  1  0.77339  0.75000  0.68215  1
 Cr  Cr1  1  0.94397  0.75000  0.88120  1
 Cr  Cr2  1  0.55603  0.25000  0.38120  1
 Cr  Cr3  1  0.08319  0.25000  0.59335  1
 Cr  Cr4  1  0.90716  0.75000  0.41176  1
 Cr  Cr5  1  0.41681  0.75000  0.09335  1
 Cr  Cr6  1  0.59284  0.25000  0.91176  1
 Nb  Nb1  1  0.04659  0.25000  0.11938  1
 Nb  Nb2  1  0.45341  0.75000  0.61938  1
 S  S1  1  0.04918  0.75000  0.71479  1
 S  S2  1  0.29752  0.25000  0.64299  1
 S  S3  1  0.45082  0.25000  0.21479  1
 S  S4  1  0.53993  0.75000  0.78995  1
 S  S5  1  0.08442  0.25000  0.92677  1
 S  S6  1  0.89774  0.75000  0.06302  1
 S  S7  1  0.96007  0.25000  0.28995  1
 S  S8  1  0.20248  0.75000  0.14299  1
 S  S9  1  0.11185  0.75000  0.46523  1
 S  S10  1  0.88371  0.25000  0.53583  1
 S  S11  1  0.38815  0.25000  0.96523  1
 S  S12  1  0.61629  0.75000  0.03583  1
 S  S13  1  0.41558  0.75000  0.42677  1
 S  S14  1  0.79964  0.25000  0.84529  1
 S  S15  1  0.60226  0.25000  0.56302  1
 S  S16  1  0.70036  0.75000  0.34529  1
