CIF file written using JARVIS-Tools package.
data_NaMnAsO4
_symmetry_space_group_name_H-M  'Pnma'
_cell_length_a       5.21507
_cell_length_b       6.40561
_cell_length_c       10.8451
_cell_angle_alpha    90
_cell_angle_beta     90
_cell_angle_gamma    90

_symmetry_Int_Tables_number  62
_chemical_formula_structural  NaMnAsO4
_chemical_formula_sum  Na4Mn4As4O6
_cell_volume  362.287318115883
_cell_formula_units_Z  4
loop_
  _symmetry_equiv_pos_site_id
 _symmetry_equiv_pos_as_xyz
 1  'x, y, z'
loop_
 _atom_site_type_symbol
 _atom_site_label
 _atom_site_symmetry_multiplicity
 _atom_site_fract_x
 _atom_site_fract_y
 _atom_site_fract_z
 _atom_site_fract_occupancy
 As  As1  1  0.05597  0.75000  0.60387  1
 As  As2  1  0.94403  0.25000  0.39613  1
 As  As3  1  0.44403  0.75000  0.10387  1
 As  As4  1  0.55597  0.25000  0.89613  1
 Mn  Mn1  1  0.49156  0.25000  0.21914  1
 Mn  Mn2  1  0.99156  0.75000  0.28086  1
 Mn  Mn3  1  0.50844  0.75000  0.78086  1
 Mn  Mn4  1  0.00844  0.25000  0.71914  1
 Na  Na1  1  0.50000  0.50000  0.50000  1
 Na  Na2  1  0.50000  0.00000  0.50000  1
 Na  Na3  1  0.00000  0.50000  0.00000  1
 Na  Na4  1  0.00000  0.00000  0.00000  1
 O  O1  1  0.20523  0.95884  0.67742  1
 O  O2  1  0.29477  0.95884  0.17742  1
 O  O3  1  0.17108  0.75000  0.45411  1
 O  O4  1  0.70523  0.45884  0.82258  1
 O  O5  1  0.20523  0.54116  0.67742  1
 O  O6  1  0.70523  0.04116  0.82258  1
 O  O7  1  0.79477  0.04116  0.32258  1
 O  O8  1  0.82892  0.25000  0.54589  1
 O  O9  1  0.22831  0.25000  0.88945  1
 O  O10  1  0.72831  0.75000  0.61055  1
 O  O11  1  0.77169  0.75000  0.11055  1
 O  O12  1  0.27169  0.25000  0.38945  1
 O  O13  1  0.29477  0.54116  0.17742  1
 O  O14  1  0.32892  0.75000  0.95411  1
 O  O15  1  0.79477  0.45884  0.32258  1
 O  O16  1  0.67108  0.25000  0.04589  1
