CIF file written using JARVIS-Tools package.
data_NaAlSe
_symmetry_space_group_name_H-M  'P4/nmm'
_cell_length_a       3.9367
_cell_length_b       3.9367
_cell_length_c       8.55022
_cell_angle_alpha    90
_cell_angle_beta     90
_cell_angle_gamma    90

_symmetry_Int_Tables_number  129
_chemical_formula_structural  NaAlSe
_chemical_formula_sum  Na2Al2Se2
_cell_volume  132.50835065744533
_cell_formula_units_Z  2
loop_
  _symmetry_equiv_pos_site_id
 _symmetry_equiv_pos_as_xyz
 1  'x, y, z'
loop_
 _atom_site_type_symbol
 _atom_site_label
 _atom_site_symmetry_multiplicity
 _atom_site_fract_x
 _atom_site_fract_y
 _atom_site_fract_z
 _atom_site_fract_occupancy
 Al  Al1  1  0.50000  0.50000  0.50000  1
 Al  Al2  1  0.00000  0.00000  0.50000  1
 Na  Na1  1  0.00000  0.50000  0.12893  1
 Na  Na2  1  0.50000  0.00000  0.87107  1
 Se  Se1  1  0.00000  0.50000  0.77687  1
 Se  Se2  1  0.50000  0.00000  0.22313  1
