CIF file written using JARVIS-Tools package.
data_TiMn2O4
_symmetry_space_group_name_H-M  'P4_322'
_cell_length_a       6.15411
_cell_length_b       6.15398
_cell_length_c       8.60359
_cell_angle_alpha    89.9987
_cell_angle_beta     89.9986
_cell_angle_gamma    90.0007

_symmetry_Int_Tables_number  95
_chemical_formula_structural  TiMn2O4
_chemical_formula_sum  Ti4Mn8O6
_cell_volume  325.83725634803574
_cell_formula_units_Z  4
loop_
  _symmetry_equiv_pos_site_id
 _symmetry_equiv_pos_as_xyz
 1  'x, y, z'
loop_
 _atom_site_type_symbol
 _atom_site_label
 _atom_site_symmetry_multiplicity
 _atom_site_fract_x
 _atom_site_fract_y
 _atom_site_fract_z
 _atom_site_fract_occupancy
 Mn  Mn1  1  0.25024  0.00000  0.25000  1
 Mn  Mn2  1  0.74861  0.74860  0.12500  1
 Mn  Mn3  1  0.25140  0.74861  0.87500  1
 Mn  Mn4  1  0.25140  0.25138  0.62500  1
 Mn  Mn5  1  0.74860  0.25141  0.37500  1
 Mn  Mn6  1  -0.00000  0.74976  0.50000  1
 Mn  Mn7  1  0.74976  -0.00000  0.75000  1
 Mn  Mn8  1  0.00000  0.25024  0.00000  1
 O  O1  1  0.73250  0.96872  0.49902  1
 O  O2  1  0.73248  0.03128  0.00098  1
 O  O3  1  0.26751  0.96872  0.50098  1
 O  O4  1  0.73305  0.51443  0.51855  1
 O  O5  1  0.03128  0.73248  0.24902  1
 O  O6  1  0.48558  0.26695  0.23146  1
 O  O7  1  0.26750  0.03128  0.99902  1
 O  O8  1  0.96872  0.26752  0.74902  1
 O  O9  1  0.96872  0.73250  0.75098  1
 O  O10  1  0.51442  0.73305  0.73145  1
 O  O11  1  0.48558  0.73306  0.26855  1
 O  O12  1  0.26694  0.51442  0.48145  1
 O  O13  1  0.73306  0.48558  0.98145  1
 O  O14  1  0.03128  0.26750  0.25098  1
 O  O15  1  0.26695  0.48558  0.01855  1
 O  O16  1  0.51442  0.26694  0.76855  1
 Ti  Ti1  1  0.50000  0.75530  0.50000  1
 Ti  Ti2  1  0.24470  0.50000  0.25000  1
 Ti  Ti3  1  0.75530  0.50000  0.75000  1
 Ti  Ti4  1  0.50000  0.24470  0.00000  1
