CIF file written using JARVIS-Tools package.
data_Ca3Y2N4
_symmetry_space_group_name_H-M  'C2/c'
_cell_length_a       6.5861
_cell_length_b       8.47977
_cell_length_c       7.09642
_cell_angle_alpha    90
_cell_angle_beta     89.9811
_cell_angle_gamma    130.073

_symmetry_Int_Tables_number  15
_chemical_formula_structural  Ca3Y2N4
_chemical_formula_sum  Ca6Y4N8
_cell_volume  303.2782415082733
_cell_formula_units_Z  2
loop_
  _symmetry_equiv_pos_site_id
 _symmetry_equiv_pos_as_xyz
 1  'x, y, z'
loop_
 _atom_site_type_symbol
 _atom_site_label
 _atom_site_symmetry_multiplicity
 _atom_site_fract_x
 _atom_site_fract_y
 _atom_site_fract_z
 _atom_site_fract_occupancy
 Ca  Ca1  1  0.26576  0.02840  0.95191  1
 Ca  Ca2  1  0.73424  0.76264  0.54809  1
 Ca  Ca3  1  0.73424  0.97160  0.04809  1
 Ca  Ca4  1  0.26576  0.23736  0.45191  1
 Ca  Ca5  1  -0.00000  0.64995  0.75000  1
 Ca  Ca6  1  0.00000  0.35005  0.25000  1
 N  N1  1  0.76464  0.27777  0.93400  1
 N  N2  1  0.25638  0.27768  0.09556  1
 N  N3  1  0.74362  0.02130  0.40444  1
 N  N4  1  0.74362  0.72232  0.90444  1
 N  N5  1  0.25638  0.97870  0.59556  1
 N  N6  1  0.76464  0.48687  0.43400  1
 N  N7  1  0.23536  0.51313  0.56600  1
 N  N8  1  0.23536  0.72223  0.06600  1
 Y  Y1  1  0.28471  0.50288  0.88813  1
 Y  Y2  1  0.28471  0.78184  0.38813  1
 Y  Y3  1  0.71529  0.49712  0.11187  1
 Y  Y4  1  0.71529  0.21816  0.61187  1
