CIF file written using JARVIS-Tools package.
data_BiN3
_symmetry_space_group_name_H-M  'P1'
_cell_length_a       6.24158
_cell_length_b       3.75378
_cell_length_c       3.41438
_cell_angle_alpha    113.147
_cell_angle_beta     81.1143
_cell_angle_gamma    73.3612

_symmetry_Int_Tables_number  1
_chemical_formula_structural  BiN3
_chemical_formula_sum  BiN3
_cell_volume  67.1629433587062
_cell_formula_units_Z  1
loop_
  _symmetry_equiv_pos_site_id
 _symmetry_equiv_pos_as_xyz
 1  'x, y, z'
loop_
 _atom_site_type_symbol
 _atom_site_label
 _atom_site_symmetry_multiplicity
 _atom_site_fract_x
 _atom_site_fract_y
 _atom_site_fract_z
 _atom_site_fract_occupancy
 Bi  Bi1  1  0.92743  0.03678  -0.14201  1
 N  N1  1  0.79155  0.47569  0.59294  1
 N  N2  1  0.35621  0.44187  0.99670  1
 N  N3  1  0.36901  0.11831  0.77427  1
