CIF file written using JARVIS-Tools package.
data_NaCoPO4
_symmetry_space_group_name_H-M  'P2_1/c'
_cell_length_a       5.22724
_cell_length_b       7.43844
_cell_length_c       9.94319
_cell_angle_alpha    90
_cell_angle_beta     90
_cell_angle_gamma    90.3133

_symmetry_Int_Tables_number  14
_chemical_formula_structural  NaCoPO4
_chemical_formula_sum  Na4Co4P4O6
_cell_volume  386.6103778316182
_cell_formula_units_Z  4
loop_
  _symmetry_equiv_pos_site_id
 _symmetry_equiv_pos_as_xyz
 1  'x, y, z'
loop_
 _atom_site_type_symbol
 _atom_site_label
 _atom_site_symmetry_multiplicity
 _atom_site_fract_x
 _atom_site_fract_y
 _atom_site_fract_z
 _atom_site_fract_occupancy
 Co  Co1  1  0.69906  0.00577  0.17097  1
 Co  Co2  1  0.19906  0.50577  0.32903  1
 Co  Co3  1  0.80094  0.49423  0.67097  1
 Co  Co4  1  0.30094  0.99423  0.82903  1
 Na  Na1  1  0.71190  0.51485  0.11860  1
 Na  Na2  1  0.21190  0.01485  0.38141  1
 Na  Na3  1  0.28810  0.48515  0.88141  1
 Na  Na4  1  0.78810  0.98515  0.61859  1
 O  O1  1  0.25731  0.71413  0.44251  1
 O  O2  1  0.40438  0.29482  0.37074  1
 O  O3  1  0.90438  0.79482  0.12926  1
 O  O4  1  0.75731  0.21413  0.05749  1
 O  O5  1  0.24269  0.78587  0.94251  1
 O  O6  1  0.15933  0.57160  0.67124  1
 O  O7  1  0.09562  0.20518  0.87074  1
 O  O8  1  0.74269  0.28587  0.55749  1
 O  O9  1  0.77825  0.08552  0.36008  1
 O  O10  1  0.34067  0.92840  0.17124  1
 O  O11  1  0.22175  0.91448  0.63992  1
 O  O12  1  0.72175  0.41448  0.86008  1
 O  O13  1  0.59562  0.70518  0.62926  1
 O  O14  1  0.65933  0.07160  0.82876  1
 O  O15  1  0.27825  0.58552  0.13992  1
 O  O16  1  0.84067  0.42840  0.32876  1
 P  P1  1  0.30659  0.72125  0.59603  1
 P  P2  1  0.19341  0.77875  0.09603  1
 P  P3  1  0.69341  0.27875  0.40397  1
 P  P4  1  0.80659  0.22125  0.90397  1
