CIF file written using JARVIS-Tools package.
data_Sr2UFeO6
_symmetry_space_group_name_H-M  'P2_1/c'
_cell_length_a       5.68788
_cell_length_b       5.74026
_cell_length_c       9.86835
_cell_angle_alpha    54.6881
_cell_angle_beta     90
_cell_angle_gamma    90

_symmetry_Int_Tables_number  14
_chemical_formula_structural  Sr2UFeO6
_chemical_formula_sum  Sr4U2Fe2O2
_cell_volume  262.92114275033714
_cell_formula_units_Z  2
loop_
  _symmetry_equiv_pos_site_id
 _symmetry_equiv_pos_as_xyz
 1  'x, y, z'
loop_
 _atom_site_type_symbol
 _atom_site_label
 _atom_site_symmetry_multiplicity
 _atom_site_fract_x
 _atom_site_fract_y
 _atom_site_fract_z
 _atom_site_fract_occupancy
 Fe  Fe1  1  0.00000  0.50000  0.00000  1
 Fe  Fe2  1  0.50000  0.50000  0.50000  1
 O  O1  1  0.24245  0.30361  0.47315  1
 O  O2  1  0.75755  0.69639  0.52685  1
 O  O3  1  0.00379  0.20759  0.24013  1
 O  O4  1  0.77623  0.27060  0.97272  1
 O  O5  1  0.25755  0.30361  0.97315  1
 O  O6  1  0.22377  0.72940  0.02728  1
 O  O7  1  0.27623  0.72940  0.52728  1
 O  O8  1  0.49621  0.20759  0.74013  1
 O  O9  1  0.50379  0.79241  0.25987  1
 O  O10  1  0.74245  0.69639  0.02685  1
 O  O11  1  0.72377  0.27060  0.47272  1
 O  O12  1  0.99621  0.79241  0.75987  1
 Sr  Sr1  1  0.98789  0.74456  0.25209  1
 Sr  Sr2  1  0.51211  0.74456  0.75209  1
 Sr  Sr3  1  0.01211  0.25544  0.74791  1
 Sr  Sr4  1  0.48789  0.25544  0.24791  1
 U  U1  1  0.00000  -0.00000  0.50000  1
 U  U2  1  0.50000  0.00000  0.00000  1
