CIF file written using JARVIS-Tools package.
data_Li2Mn2F7
_symmetry_space_group_name_H-M  'C2/c'
_cell_length_a       5.35058
_cell_length_b       5.35058
_cell_length_c       9.54467
_cell_angle_alpha    83.999
_cell_angle_beta     83.999
_cell_angle_gamma    108.006

_symmetry_Int_Tables_number  15
_chemical_formula_structural  Li2Mn2F7
_chemical_formula_sum  Li4Mn4F4
_cell_volume  255.7250296432213
_cell_formula_units_Z  2
loop_
  _symmetry_equiv_pos_site_id
 _symmetry_equiv_pos_as_xyz
 1  'x, y, z'
loop_
 _atom_site_type_symbol
 _atom_site_label
 _atom_site_symmetry_multiplicity
 _atom_site_fract_x
 _atom_site_fract_y
 _atom_site_fract_z
 _atom_site_fract_occupancy
 F  F1  1  0.83664  0.16336  0.25000  1
 F  F2  1  0.67150  0.95345  0.57045  1
 F  F3  1  0.88110  0.48964  0.61638  1
 F  F4  1  0.11890  0.51036  0.38362  1
 F  F5  1  0.95345  0.67150  0.07045  1
 F  F6  1  0.16336  0.83664  0.75000  1
 F  F7  1  0.59902  0.63507  0.87226  1
 F  F8  1  0.63507  0.59902  0.37226  1
 F  F9  1  0.36493  0.40098  0.62774  1
 F  F10  1  0.51036  0.11890  0.88362  1
 F  F11  1  0.32850  0.04655  0.42955  1
 F  F12  1  0.04655  0.32850  0.92955  1
 F  F13  1  0.40098  0.36493  0.12774  1
 F  F14  1  0.48964  0.88110  0.11638  1
 Li  Li1  1  0.18802  0.24748  0.29522  1
 Li  Li2  1  0.24748  0.18802  0.79522  1
 Li  Li3  1  0.75252  0.81198  0.20478  1
 Li  Li4  1  0.81198  0.75252  0.70478  1
 Mn  Mn1  1  0.30180  0.70718  0.96221  1
 Mn  Mn2  1  0.29282  0.69820  0.53779  1
 Mn  Mn3  1  0.70718  0.30180  0.46221  1
 Mn  Mn4  1  0.69820  0.29282  0.03779  1
