CIF file written using JARVIS-Tools package.
data_Li2VO2F
_symmetry_space_group_name_H-M  'C2/m'
_cell_length_a       5.75739
_cell_length_b       6.56011
_cell_length_c       6.54984
_cell_angle_alpha    83.7664
_cell_angle_beta     116.069
_cell_angle_gamma    77.3275

_symmetry_Int_Tables_number  12
_chemical_formula_structural  Li2VO2F
_chemical_formula_sum  Li8V4O8F4
_cell_volume  210.78651955790298
_cell_formula_units_Z  4
loop_
  _symmetry_equiv_pos_site_id
 _symmetry_equiv_pos_as_xyz
 1  'x, y, z'
loop_
 _atom_site_type_symbol
 _atom_site_label
 _atom_site_symmetry_multiplicity
 _atom_site_fract_x
 _atom_site_fract_y
 _atom_site_fract_z
 _atom_site_fract_occupancy
 F  F1  1  0.87890  0.66060  0.58809  1
 F  F2  1  0.12110  0.67275  0.07858  1
 F  F3  1  0.37890  0.66060  0.58809  1
 F  F4  1  0.62110  0.67274  0.07858  1
 Li  Li1  1  0.75698  0.33431  0.18122  1
 Li  Li2  1  0.25698  0.33431  0.18122  1
 Li  Li3  1  1.00000  0.66667  0.33334  1
 Li  Li4  1  0.24302  -0.00097  0.48545  1
 Li  Li5  1  0.50000  0.66667  0.33333  1
 Li  Li6  1  0.25000  0.66667  0.83334  1
 Li  Li7  1  0.75000  0.66667  0.83334  1
 Li  Li8  1  0.74302  -0.00097  0.48545  1
 O  O1  1  0.87081  0.33293  0.90811  1
 O  O2  1  0.37081  0.33293  0.90811  1
 O  O3  1  0.12919  0.00042  0.75856  1
 O  O4  1  0.62919  0.00042  0.75856  1
 O  O5  1  0.62894  0.34228  0.42903  1
 O  O6  1  0.37106  0.99106  0.23764  1
 O  O7  1  0.87106  0.99106  0.23764  1
 O  O8  1  0.12894  0.34228  0.42903  1
 V  V1  1  0.99828  0.01578  0.00443  1
 V  V2  1  0.50171  0.31756  0.66224  1
 V  V3  1  0.49828  0.01578  0.00443  1
 V  V4  1  0.00172  0.31757  0.66224  1
