CIF file written using JARVIS-Tools package.
data_Li3Fe3NiO8
_symmetry_space_group_name_H-M  'R-3m'
_cell_length_a       5.74219
_cell_length_b       5.7422
_cell_length_c       5.7422
_cell_angle_alpha    58.9432
_cell_angle_beta     58.9432
_cell_angle_gamma    58.9432

_symmetry_Int_Tables_number  166
_chemical_formula_structural  Li3Fe3NiO8
_chemical_formula_sum  Li3Fe3NiO8
_cell_volume  130.65244809001672
_cell_formula_units_Z  1
loop_
  _symmetry_equiv_pos_site_id
 _symmetry_equiv_pos_as_xyz
 1  'x, y, z'
loop_
 _atom_site_type_symbol
 _atom_site_label
 _atom_site_symmetry_multiplicity
 _atom_site_fract_x
 _atom_site_fract_y
 _atom_site_fract_z
 _atom_site_fract_occupancy
 Fe  Fe1  1  0.50000  0.00000  0.50000  1
 Fe  Fe2  1  0.00000  0.50000  0.50000  1
 Fe  Fe3  1  0.50000  0.50000  0.00000  1
 Li  Li1  1  0.00000  0.50000  0.00000  1
 Li  Li2  1  0.50000  -0.00000  0.00000  1
 Li  Li3  1  0.00000  0.00000  0.50000  1
 Ni  Ni1  1  0.00000  0.00000  0.00000  1
 O  O1  1  0.74188  0.74188  0.74188  1
 O  O2  1  0.23781  0.73855  0.23781  1
 O  O3  1  0.73855  0.23781  0.23781  1
 O  O4  1  0.25812  0.25812  0.25812  1
 O  O5  1  0.23781  0.23781  0.73855  1
 O  O6  1  0.76219  0.26145  0.76219  1
 O  O7  1  0.26145  0.76219  0.76219  1
 O  O8  1  0.76219  0.76219  0.26145  1
