CIF file written using JARVIS-Tools package.
data_LiCo2O4
_symmetry_space_group_name_H-M  'P2/m'
_cell_length_a       4.85171
_cell_length_b       5.65427
_cell_length_c       5.744
_cell_angle_alpha    60.5152
_cell_angle_beta     106.846
_cell_angle_gamma    90.0001

_symmetry_Int_Tables_number  10
_chemical_formula_structural  LiCo2O4
_chemical_formula_sum  Li2Co4O8
_cell_volume  129.34182268152003
_cell_formula_units_Z  2
loop_
  _symmetry_equiv_pos_site_id
 _symmetry_equiv_pos_as_xyz
 1  'x, y, z'
loop_
 _atom_site_type_symbol
 _atom_site_label
 _atom_site_symmetry_multiplicity
 _atom_site_fract_x
 _atom_site_fract_y
 _atom_site_fract_z
 _atom_site_fract_occupancy
 Co  Co1  1  0.50000  0.25000  0.50000  1
 Co  Co2  1  0.50000  0.75000  0.50000  1
 Co  Co3  1  -0.00000  0.00001  0.50000  1
 Co  Co4  1  -0.00000  0.49999  0.50000  1
 Li  Li1  1  0.00027  0.50004  -0.00005  1
 Li  Li2  1  0.99973  -0.00001  0.00005  1
 O  O1  1  0.74111  0.89455  0.71089  1
 O  O2  1  0.74111  0.39455  0.71090  1
 O  O3  1  0.25889  0.10544  0.28911  1
 O  O4  1  0.25888  0.60545  0.28910  1
 O  O5  1  0.76635  0.35203  0.29593  1
 O  O6  1  0.76635  0.85203  0.29594  1
 O  O7  1  0.23365  0.14796  0.70407  1
 O  O8  1  0.23364  0.64797  0.70406  1
