CIF file written using JARVIS-Tools package.
data_MnSbO4
_symmetry_space_group_name_H-M  'I-4m2'
_cell_length_a       5.55944
_cell_length_b       7.89644
_cell_length_c       7.89685
_cell_angle_alpha    111.686
_cell_angle_beta     99.5964
_cell_angle_gamma    69.765

_symmetry_Int_Tables_number  119
_chemical_formula_structural  MnSbO4
_chemical_formula_sum  Mn4Sb4O6
_cell_volume  301.9515796949345
_cell_formula_units_Z  4
loop_
  _symmetry_equiv_pos_site_id
 _symmetry_equiv_pos_as_xyz
 1  'x, y, z'
loop_
 _atom_site_type_symbol
 _atom_site_label
 _atom_site_symmetry_multiplicity
 _atom_site_fract_x
 _atom_site_fract_y
 _atom_site_fract_z
 _atom_site_fract_occupancy
 Mn  Mn1  1  0.50020  0.50002  0.99990  1
 Mn  Mn2  1  0.74970  0.74997  0.50006  1
 Mn  Mn3  1  0.99980  0.99997  0.00010  1
 Mn  Mn4  1  0.25027  0.25001  0.49995  1
 O  O1  1  0.17751  0.13557  0.22914  1
 O  O2  1  0.42760  0.38548  0.72898  1
 O  O3  1  0.67743  0.63540  0.22888  1
 O  O4  1  0.73980  0.94795  0.10404  1
 O  O5  1  0.69770  0.23928  0.02091  1
 O  O6  1  0.94741  0.48976  0.52098  1
 O  O7  1  0.92734  0.88551  0.72906  1
 O  O8  1  0.44765  0.98926  0.52099  1
 O  O9  1  0.25995  0.05203  0.89601  1
 O  O10  1  0.76031  0.55204  0.89588  1
 O  O11  1  0.19739  0.73973  0.02104  1
 O  O12  1  0.00989  0.80207  0.39600  1
 O  O13  1  0.24001  0.44801  0.10404  1
 O  O14  1  0.48974  0.69794  0.60405  1
 O  O15  1  0.51037  0.30200  0.39589  1
 O  O16  1  -0.00997  0.19802  0.60406  1
 Sb  Sb1  1  0.18730  0.93752  0.62505  1
 Sb  Sb2  1  0.93755  0.68747  0.12505  1
 Sb  Sb3  1  0.68765  0.43747  0.62497  1
 Sb  Sb4  1  0.43741  0.18752  0.12496  1
