CIF file written using JARVIS-Tools package.
data_IBr2
_symmetry_space_group_name_H-M  'Pm'
_cell_length_a       8.74469
_cell_length_b       4.01034
_cell_length_c       8.73688
_cell_angle_alpha    90
_cell_angle_beta     158.713
_cell_angle_gamma    90

_symmetry_Int_Tables_number  6
_chemical_formula_structural  IBr2
_chemical_formula_sum  IBr2
_cell_volume  111.23528388958614
_cell_formula_units_Z  1
loop_
  _symmetry_equiv_pos_site_id
 _symmetry_equiv_pos_as_xyz
 1  'x, y, z'
loop_
 _atom_site_type_symbol
 _atom_site_label
 _atom_site_symmetry_multiplicity
 _atom_site_fract_x
 _atom_site_fract_y
 _atom_site_fract_z
 _atom_site_fract_occupancy
 Br  Br1  1  0.08160  0.00000  0.07563  1
 Br  Br2  1  0.22562  0.00000  -0.07352  1
 I  I1  1  -0.08012  0.00000  0.24296  1
