CIF file written using JARVIS-Tools package.
data_Li2MnP2O8
_symmetry_space_group_name_H-M  'P-1'
_cell_length_a       9.90578
_cell_length_b       5.68314
_cell_length_c       4.67791
_cell_angle_alpha    88.127
_cell_angle_beta     89.44
_cell_angle_gamma    89.7371

_symmetry_Int_Tables_number  2
_chemical_formula_structural  Li2MnP2O8
_chemical_formula_sum  Li4Mn2P4O6
_cell_volume  263.19134030088713
_cell_formula_units_Z  2
loop_
  _symmetry_equiv_pos_site_id
 _symmetry_equiv_pos_as_xyz
 1  'x, y, z'
loop_
 _atom_site_type_symbol
 _atom_site_label
 _atom_site_symmetry_multiplicity
 _atom_site_fract_x
 _atom_site_fract_y
 _atom_site_fract_z
 _atom_site_fract_occupancy
 Li  Li1  1  -0.00000  -0.00000  0.00000  1
 Li  Li2  1  0.23058  0.75004  0.46529  1
 Li  Li3  1  0.50000  0.50000  0.50000  1
 Li  Li4  1  0.76942  0.24996  0.53471  1
 Mn  Mn1  1  0.27877  0.25530  0.98855  1
 Mn  Mn2  1  0.72123  0.74470  0.01145  1
 O  O1  1  0.04580  0.75652  0.65874  1
 O  O2  1  0.12339  0.24656  0.74002  1
 O  O3  1  0.87661  0.75344  0.25998  1
 O  O4  1  0.18344  0.45728  0.25356  1
 O  O5  1  0.33889  0.97924  0.79702  1
 O  O6  1  0.34029  0.54133  0.78594  1
 O  O7  1  0.17729  0.04730  0.24940  1
 O  O8  1  0.44067  0.25132  0.19780  1
 O  O9  1  0.59175  0.25833  0.74808  1
 O  O10  1  0.81656  0.54272  0.74644  1
 O  O11  1  0.65971  0.45867  0.21406  1
 O  O12  1  0.40825  0.74167  0.25192  1
 O  O13  1  0.82271  0.95270  0.75060  1
 O  O14  1  0.55933  0.74868  0.80220  1
 O  O15  1  0.66111  0.02076  0.20298  1
 O  O16  1  0.95420  0.24348  0.34126  1
 P  P1  1  0.41119  0.75746  0.93283  1
 P  P2  1  0.10154  0.25434  0.41265  1
 P  P3  1  0.58881  0.24254  0.06717  1
 P  P4  1  0.89846  0.74566  0.58735  1
