CIF file written using JARVIS-Tools package.
data_Li3MnCo3O8
_symmetry_space_group_name_H-M  'C2/m'
_cell_length_a       5.64869
_cell_length_b       5.76249
_cell_length_c       9.77928
_cell_angle_alpha    107.175
_cell_angle_beta     89.995
_cell_angle_gamma    119.345

_symmetry_Int_Tables_number  12
_chemical_formula_structural  Li3MnCo3O8
_chemical_formula_sum  Li6Mn2Co6O6
_cell_volume  261.07395650460654
_cell_formula_units_Z  2
loop_
  _symmetry_equiv_pos_site_id
 _symmetry_equiv_pos_as_xyz
 1  'x, y, z'
loop_
 _atom_site_type_symbol
 _atom_site_label
 _atom_site_symmetry_multiplicity
 _atom_site_fract_x
 _atom_site_fract_y
 _atom_site_fract_z
 _atom_site_fract_occupancy
 Co  Co1  1  0.00001  -0.00001  0.50000  1
 Co  Co2  1  0.49999  0.00002  0.00000  1
 Co  Co3  1  0.75000  0.00000  0.75000  1
 Co  Co4  1  0.25001  0.00001  0.75000  1
 Co  Co5  1  0.25000  -0.00000  0.25000  1
 Co  Co6  1  0.74999  -0.00001  0.25000  1
 Li  Li1  1  0.75001  0.50000  0.24999  1
 Li  Li2  1  0.49990  0.50000  0.00006  1
 Li  Li3  1  0.00008  0.50000  0.49997  1
 Li  Li4  1  0.50010  0.49998  0.50006  1
 Li  Li5  1  0.99990  0.50002  -0.00007  1
 Li  Li6  1  0.25002  0.49999  0.75001  1
 Mn  Mn1  1  0.50002  -0.00002  0.49999  1
 Mn  Mn2  1  0.99998  0.00002  0.00000  1
 O  O1  1  0.60507  0.21020  0.87178  1
 O  O2  1  0.85953  0.21597  0.61917  1
 O  O3  1  0.38896  0.77786  0.62789  1
 O  O4  1  0.11104  0.22215  0.87211  1
 O  O5  1  0.61105  0.22212  0.37211  1
 O  O6  1  0.10508  0.21018  0.37178  1
 O  O7  1  0.88894  0.77786  0.12788  1
 O  O8  1  0.85641  0.21599  0.11918  1
 O  O9  1  0.14049  0.78401  0.38082  1
 O  O10  1  0.64047  0.78404  0.88083  1
 O  O11  1  0.64359  0.78400  0.38082  1
 O  O12  1  0.14357  0.78404  0.88083  1
 O  O13  1  0.35644  0.21597  0.61917  1
 O  O14  1  0.89494  0.78981  0.62823  1
 O  O15  1  0.39492  0.78981  0.12822  1
 O  O16  1  0.35950  0.21598  0.11918  1
