CIF file written using JARVIS-Tools package.
data_MgSeO4
_symmetry_space_group_name_H-M  'I-4'
_cell_length_a       5.24827
_cell_length_b       5.24827
_cell_length_c       5.24827
_cell_angle_alpha    123.18
_cell_angle_beta     123.18
_cell_angle_gamma    84.5751

_symmetry_Int_Tables_number  82
_chemical_formula_structural  MgSeO4
_chemical_formula_sum  MgSeO4
_cell_volume  96.83160990273352
_cell_formula_units_Z  1
loop_
  _symmetry_equiv_pos_site_id
 _symmetry_equiv_pos_as_xyz
 1  'x, y, z'
loop_
 _atom_site_type_symbol
 _atom_site_label
 _atom_site_symmetry_multiplicity
 _atom_site_fract_x
 _atom_site_fract_y
 _atom_site_fract_z
 _atom_site_fract_occupancy
 Mg  Mg1  1  0.25000  0.75000  0.50000  1
 O  O1  1  0.29462  0.90442  0.95913  1
 O  O2  1  0.09558  0.05472  0.39020  1
 O  O3  1  0.66451  0.70538  0.60980  1
 O  O4  1  0.94528  0.33549  0.04087  1
 Se  Se1  1  0.00000  0.00000  0.00000  1
