CIF file written using JARVIS-Tools package.
data_MgSe3
_symmetry_space_group_name_H-M  'P1'
_cell_length_a       7.54079
_cell_length_b       3.77388
_cell_length_c       5.12701
_cell_angle_alpha    68.2482
_cell_angle_beta     46.9345
_cell_angle_gamma    75.666

_symmetry_Int_Tables_number  1
_chemical_formula_structural  MgSe3
_chemical_formula_sum  MgSe3
_cell_volume  99.00088290472198
_cell_formula_units_Z  1
loop_
  _symmetry_equiv_pos_site_id
 _symmetry_equiv_pos_as_xyz
 1  'x, y, z'
loop_
 _atom_site_type_symbol
 _atom_site_label
 _atom_site_symmetry_multiplicity
 _atom_site_fract_x
 _atom_site_fract_y
 _atom_site_fract_z
 _atom_site_fract_occupancy
 Mg  Mg1  1  0.68910  0.41969  0.68326  1
 Se  Se1  1  0.08168  0.11086  -0.08328  1
 Se  Se2  1  0.03954  0.85977  0.45820  1
 Se  Se3  1  0.56559  0.11753  0.41099  1
