CIF file written using JARVIS-Tools package.
data_Li5VO4F
_symmetry_space_group_name_H-M  'Cm'
_cell_length_a       5.10613
_cell_length_b       5.10614
_cell_length_c       5.76647
_cell_angle_alpha    72.8803
_cell_angle_beta     72.8803
_cell_angle_gamma    44.8694

_symmetry_Int_Tables_number  8
_chemical_formula_structural  Li5VO4F
_chemical_formula_sum  Li5VO4F
_cell_volume  100.5461292195968
_cell_formula_units_Z  1
loop_
  _symmetry_equiv_pos_site_id
 _symmetry_equiv_pos_as_xyz
 1  'x, y, z'
loop_
 _atom_site_type_symbol
 _atom_site_label
 _atom_site_symmetry_multiplicity
 _atom_site_fract_x
 _atom_site_fract_y
 _atom_site_fract_z
 _atom_site_fract_occupancy
 F  F1  1  0.15993  0.15993  0.64803  1
 Li  Li1  1  0.67004  0.67004  0.10940  1
 Li  Li2  1  0.69862  0.69862  0.65558  1
 Li  Li3  1  0.28741  0.28741  0.30493  1
 Li  Li4  1  0.31658  0.31658  0.85479  1
 Li  Li5  1  0.98768  0.98768  0.47869  1
 O  O1  1  0.13499  0.13499  0.15072  1
 O  O2  1  0.48796  0.48796  0.99075  1
 O  O3  1  0.82662  0.82662  0.31099  1
 O  O4  1  0.85365  0.85365  0.80495  1
 V  V1  1  0.97516  0.97516  0.01768  1
