CIF file written using JARVIS-Tools package.
data_IBr2
_symmetry_space_group_name_H-M  'Pmmm'
_cell_length_a       7.37468
_cell_length_b       3.09988
_cell_length_c       5.3335
_cell_angle_alpha    90
_cell_angle_beta     90
_cell_angle_gamma    90

_symmetry_Int_Tables_number  47
_chemical_formula_structural  IBr2
_chemical_formula_sum  IBr2
_cell_volume  121.92734752333098
_cell_formula_units_Z  1
loop_
  _symmetry_equiv_pos_site_id
 _symmetry_equiv_pos_as_xyz
 1  'x, y, z'
loop_
 _atom_site_type_symbol
 _atom_site_label
 _atom_site_symmetry_multiplicity
 _atom_site_fract_x
 _atom_site_fract_y
 _atom_site_fract_z
 _atom_site_fract_occupancy
 Br  Br1  1  -0.03331  0.00000  0.74858  1
 Br  Br2  1  -0.03331  0.00000  0.25142  1
 I  I1  1  0.46662  0.00000  0.00000  1
