CIF file written using JARVIS-Tools package.
data_Co3O4
_symmetry_space_group_name_H-M  'Fd-3m'
_cell_length_a       5.67245
_cell_length_b       5.66885
_cell_length_c       5.6744
_cell_angle_alpha    60.0178
_cell_angle_beta     59.9248
_cell_angle_gamma    60.0175

_symmetry_Int_Tables_number  227
_chemical_formula_structural  Co3O4
_chemical_formula_sum  Co6O8
_cell_volume  128.98481945615598
_cell_formula_units_Z  2
loop_
  _symmetry_equiv_pos_site_id
 _symmetry_equiv_pos_as_xyz
 1  'x, y, z'
loop_
 _atom_site_type_symbol
 _atom_site_label
 _atom_site_symmetry_multiplicity
 _atom_site_fract_x
 _atom_site_fract_y
 _atom_site_fract_z
 _atom_site_fract_occupancy
 Co  Co1  1  0.62500  0.62500  0.12499  1
 Co  Co2  1  0.12499  0.62500  0.62500  1
 Co  Co3  1  0.25010  0.24997  0.25002  1
 Co  Co4  1  -0.00009  0.00003  -0.00002  1
 Co  Co5  1  0.62500  0.12499  0.62500  1
 Co  Co6  1  0.62500  0.62500  0.62500  1
 O  O1  1  0.38494  0.84596  0.38491  1
 O  O2  1  0.40400  0.86505  0.86582  1
 O  O3  1  0.38416  0.38485  0.84601  1
 O  O4  1  0.84600  0.38495  0.38418  1
 O  O5  1  0.38487  0.38417  0.38497  1
 O  O6  1  0.86584  0.86515  0.40399  1
 O  O7  1  0.86506  0.40404  0.86509  1
 O  O8  1  0.86513  0.86583  0.86503  1
