CIF file written using JARVIS-Tools package.
data_Li3Fe2O6
_symmetry_space_group_name_H-M  'C2/m'
_cell_length_a       4.92466
_cell_length_b       4.89341
_cell_length_c       8.45777
_cell_angle_alpha    90.0017
_cell_angle_beta     90.0023
_cell_angle_gamma    109.816

_symmetry_Int_Tables_number  12
_chemical_formula_structural  Li3Fe2O6
_chemical_formula_sum  Li6Fe4O2
_cell_volume  191.74942635290623
_cell_formula_units_Z  2
loop_
  _symmetry_equiv_pos_site_id
 _symmetry_equiv_pos_as_xyz
 1  'x, y, z'
loop_
 _atom_site_type_symbol
 _atom_site_label
 _atom_site_symmetry_multiplicity
 _atom_site_fract_x
 _atom_site_fract_y
 _atom_site_fract_z
 _atom_site_fract_occupancy
 Fe  Fe1  1  0.50000  0.25001  0.41761  1
 Fe  Fe2  1  0.50000  0.75002  0.58239  1
 Fe  Fe3  1  0.50000  0.74997  0.91761  1
 Fe  Fe4  1  0.50000  0.24998  0.08239  1
 Li  Li1  1  0.00002  0.25002  0.24999  1
 Li  Li2  1  0.00002  0.75002  0.74999  1
 Li  Li3  1  0.99992  0.75007  0.09894  1
 Li  Li4  1  0.00004  0.24996  0.59897  1
 Li  Li5  1  -0.00007  0.25006  0.90103  1
 Li  Li6  1  0.00007  0.74995  0.40105  1
 O  O1  1  0.27341  0.48804  0.43501  1
 O  O2  1  0.27052  0.04128  0.25000  1
 O  O3  1  0.72948  0.45872  0.25001  1
 O  O4  1  0.72949  0.95872  0.75001  1
 O  O5  1  0.27051  0.54127  0.74999  1
 O  O6  1  0.72657  0.01199  0.43502  1
 O  O7  1  0.72658  0.51200  0.56500  1
 O  O8  1  0.72659  0.01195  0.06499  1
 O  O9  1  0.72657  0.51194  0.93500  1
 O  O10  1  0.27343  0.48800  0.06498  1
 O  O11  1  0.27343  0.98805  0.56500  1
 O  O12  1  0.27343  0.98799  0.93501  1
