CIF file written using JARVIS-Tools package.
data_BBrN2
_symmetry_space_group_name_H-M  'P4mm'
_cell_length_a       2.66728
_cell_length_b       2.66728
_cell_length_c       6.08514
_cell_angle_alpha    90
_cell_angle_beta     90
_cell_angle_gamma    90

_symmetry_Int_Tables_number  99
_chemical_formula_structural  BBrN2
_chemical_formula_sum  BBrN2
_cell_volume  43.292163940925604
_cell_formula_units_Z  1
loop_
  _symmetry_equiv_pos_site_id
 _symmetry_equiv_pos_as_xyz
 1  'x, y, z'
loop_
 _atom_site_type_symbol
 _atom_site_label
 _atom_site_symmetry_multiplicity
 _atom_site_fract_x
 _atom_site_fract_y
 _atom_site_fract_z
 _atom_site_fract_occupancy
 B  B1  1  0.50000  0.50000  0.57392  1
 Br  Br1  1  0.00000  0.00000  0.15406  1
 N  N1  1  0.00000  0.00000  0.47906  1
 N  N2  1  0.50000  0.50000  0.80296  1
