CIF file written using JARVIS-Tools package.
data_I2Br
_symmetry_space_group_name_H-M  'P1'
_cell_length_a       4.54762
_cell_length_b       4.30201
_cell_length_c       6.86099
_cell_angle_alpha    59.2162
_cell_angle_beta     100.965
_cell_angle_gamma    85.7432

_symmetry_Int_Tables_number  1
_chemical_formula_structural  I2Br
_chemical_formula_sum  I2Br
_cell_volume  110.84296020749724
_cell_formula_units_Z  1
loop_
  _symmetry_equiv_pos_site_id
 _symmetry_equiv_pos_as_xyz
 1  'x, y, z'
loop_
 _atom_site_type_symbol
 _atom_site_label
 _atom_site_symmetry_multiplicity
 _atom_site_fract_x
 _atom_site_fract_y
 _atom_site_fract_z
 _atom_site_fract_occupancy
 Br  Br1  1  0.98975  0.00417  0.05643  1
 I  I1  1  0.66750  0.00274  0.37564  1
 I  I2  1  0.35974  -0.00808  0.69990  1
