CIF file written using JARVIS-Tools package.
data_AlV2O4
_symmetry_space_group_name_H-M  'I4_1/amd'
_cell_length_a       5.84769
_cell_length_b       5.83533
_cell_length_c       5.8475
_cell_angle_alpha    60.0578
_cell_angle_beta     59.8631
_cell_angle_gamma    60.0655

_symmetry_Int_Tables_number  141
_chemical_formula_structural  AlV2O4
_chemical_formula_sum  Al2V4O8
_cell_volume  141.0773868326096
_cell_formula_units_Z  2
loop_
  _symmetry_equiv_pos_site_id
 _symmetry_equiv_pos_as_xyz
 1  'x, y, z'
loop_
 _atom_site_type_symbol
 _atom_site_label
 _atom_site_symmetry_multiplicity
 _atom_site_fract_x
 _atom_site_fract_y
 _atom_site_fract_z
 _atom_site_fract_occupancy
 Al  Al1  1  0.62498  0.62502  0.62502  1
 Al  Al2  1  0.37501  0.37498  0.37499  1
 O  O1  1  0.25186  0.74811  0.75198  1
 O  O2  1  0.24800  0.25194  0.74816  1
 O  O3  1  0.25191  0.74815  0.25193  1
 O  O4  1  0.25194  0.24802  0.25190  1
 O  O5  1  0.75200  0.74806  0.25186  1
 O  O6  1  0.74813  0.25191  0.24801  1
 O  O7  1  0.74810  0.25184  0.74806  1
 O  O8  1  0.74806  0.75198  0.74809  1
 V  V1  1  1.00000  0.00000  0.00001  1
 V  V2  1  0.00000  0.00000  0.49999  1
 V  V3  1  0.99999  0.50001  -0.00000  1
 V  V4  1  0.50002  0.99999  -0.00000  1
