CIF file written using JARVIS-Tools package.
data_IBr2
_symmetry_space_group_name_H-M  'P-1'
_cell_length_a       4.45349
_cell_length_b       5.75029
_cell_length_c       4.19843
_cell_angle_alpha    83.2221
_cell_angle_beta     86.0847
_cell_angle_gamma    74.2265

_symmetry_Int_Tables_number  2
_chemical_formula_structural  IBr2
_chemical_formula_sum  IBr2
_cell_volume  102.67141341905705
_cell_formula_units_Z  1
loop_
  _symmetry_equiv_pos_site_id
 _symmetry_equiv_pos_as_xyz
 1  'x, y, z'
loop_
 _atom_site_type_symbol
 _atom_site_label
 _atom_site_symmetry_multiplicity
 _atom_site_fract_x
 _atom_site_fract_y
 _atom_site_fract_z
 _atom_site_fract_occupancy
 Br  Br1  1  0.28667  0.35329  0.78224  1
 Br  Br2  1  0.64499  0.74232  0.35346  1
 I  I1  1  0.96581  0.04779  0.06787  1
