CIF file written using JARVIS-Tools package.
data_Ti2MnO4
_symmetry_space_group_name_H-M  'Fd-3m'
_cell_length_a       6.04549
_cell_length_b       6.04548
_cell_length_c       10.471
_cell_angle_alpha    90.0003
_cell_angle_beta     73.2192
_cell_angle_gamma    59.9991

_symmetry_Int_Tables_number  227
_chemical_formula_structural  Ti2MnO4
_chemical_formula_sum  Ti8Mn4O6
_cell_volume  312.45972094294206
_cell_formula_units_Z  4
loop_
  _symmetry_equiv_pos_site_id
 _symmetry_equiv_pos_as_xyz
 1  'x, y, z'
loop_
 _atom_site_type_symbol
 _atom_site_label
 _atom_site_symmetry_multiplicity
 _atom_site_fract_x
 _atom_site_fract_y
 _atom_site_fract_z
 _atom_site_fract_occupancy
 Mn  Mn1  1  0.87501  0.81249  0.93747  1
 Mn  Mn2  1  0.12499  0.18750  0.06253  1
 Mn  Mn3  1  0.87498  0.31251  0.43753  1
 Mn  Mn4  1  0.12502  0.68749  0.56248  1
 O  O1  1  0.74010  0.11015  0.37005  1
 O  O2  1  0.74013  0.87993  0.13984  1
 O  O3  1  0.72026  0.38986  0.12995  1
 O  O4  1  0.25994  0.38985  0.12996  1
 O  O5  1  0.25991  0.88985  0.62995  1
 O  O6  1  0.25993  0.62004  0.36011  1
 O  O7  1  0.25987  0.12007  0.86016  1
 O  O8  1  0.74007  0.37996  0.63988  1
 O  O9  1  0.27975  0.61013  0.87005  1
 O  O10  1  0.74011  0.64974  0.37005  1
 O  O11  1  0.74007  0.14978  0.87003  1
 O  O12  1  0.72029  0.88985  0.62994  1
 O  O13  1  0.25990  0.35026  0.62995  1
 O  O14  1  0.27970  0.11015  0.37006  1
 O  O15  1  0.74006  0.61015  0.87004  1
 O  O16  1  0.25992  0.85022  0.12997  1
 Ti  Ti1  1  0.00002  0.24999  0.75000  1
 Ti  Ti2  1  0.99998  0.75001  0.25000  1
 Ti  Ti3  1  0.49997  0.24999  0.74999  1
 Ti  Ti4  1  0.50003  0.75001  0.25001  1
 Ti  Ti5  1  0.49997  0.75004  0.74999  1
 Ti  Ti6  1  0.50003  0.24996  0.25001  1
 Ti  Ti7  1  0.50000  -0.00000  0.50000  1
 Ti  Ti8  1  0.50000  0.50000  0.00000  1
