CIF file written using JARVIS-Tools package.
data_BBr
_symmetry_space_group_name_H-M  'C2/m'
_cell_length_a       5.48202
_cell_length_b       6.12044
_cell_length_c       3.20972
_cell_angle_alpha    74.8015
_cell_angle_beta     125.799
_cell_angle_gamma    100.47

_symmetry_Int_Tables_number  12
_chemical_formula_structural  BBr
_chemical_formula_sum  B2Br2
_cell_volume  84.23654916319751
_cell_formula_units_Z  2
loop_
  _symmetry_equiv_pos_site_id
 _symmetry_equiv_pos_as_xyz
 1  'x, y, z'
loop_
 _atom_site_type_symbol
 _atom_site_label
 _atom_site_symmetry_multiplicity
 _atom_site_fract_x
 _atom_site_fract_y
 _atom_site_fract_z
 _atom_site_fract_occupancy
 B  B1  1  0.16753  0.04786  -0.03703  1
 B  B2  1  0.36190  0.84218  0.26002  1
 Br  Br1  1  0.53344  0.67521  0.01488  1
 Br  Br2  1  -0.00403  0.21482  0.20810  1
