CIF file written using JARVIS-Tools package.
data_MnSiO4
_symmetry_space_group_name_H-M  'I-4m2'
_cell_length_a       5.07513
_cell_length_b       5.07513
_cell_length_c       5.07513
_cell_angle_alpha    138.197
_cell_angle_beta     138.197
_cell_angle_gamma    60.6016

_symmetry_Int_Tables_number  119
_chemical_formula_structural  MnSiO4
_chemical_formula_sum  MnSiO4
_cell_volume  57.460501888412885
_cell_formula_units_Z  1
loop_
  _symmetry_equiv_pos_site_id
 _symmetry_equiv_pos_as_xyz
 1  'x, y, z'
loop_
 _atom_site_type_symbol
 _atom_site_label
 _atom_site_symmetry_multiplicity
 _atom_site_fract_x
 _atom_site_fract_y
 _atom_site_fract_z
 _atom_site_fract_occupancy
 Mn  Mn1  1  0.00000  0.00000  0.00000  1
 O  O1  1  0.94924  0.44924  0.50000  1
 O  O2  1  0.78271  0.78271  0.00000  1
 O  O3  1  0.55076  0.05076  0.50000  1
 O  O4  1  0.21729  0.21729  -0.00000  1
 Si  Si1  1  0.75000  0.25000  0.50000  1
