CIF file written using JARVIS-Tools package.
data_SnBO4
_symmetry_space_group_name_H-M  'I-4m2'
_cell_length_a       5.01714
_cell_length_b       5.01714
_cell_length_c       5.01714
_cell_angle_alpha    132.501
_cell_angle_beta     132.501
_cell_angle_gamma    69.4394

_symmetry_Int_Tables_number  119
_chemical_formula_structural  SnBO4
_chemical_formula_sum  SnBO4
_cell_volume  67.3480719264614
_cell_formula_units_Z  1
loop_
  _symmetry_equiv_pos_site_id
 _symmetry_equiv_pos_as_xyz
 1  'x, y, z'
loop_
 _atom_site_type_symbol
 _atom_site_label
 _atom_site_symmetry_multiplicity
 _atom_site_fract_x
 _atom_site_fract_y
 _atom_site_fract_z
 _atom_site_fract_occupancy
 B  B1  1  0.75000  0.25000  0.50000  1
 O  O1  1  0.57669  0.07669  0.50000  1
 O  O2  1  0.24277  0.24277  -0.00000  1
 O  O3  1  0.92331  0.42331  0.50000  1
 O  O4  1  0.75723  0.75723  0.00000  1
 Sn  Sn1  1  0.00000  0.00000  0.00000  1
