CIF file written using JARVIS-Tools package.
data_Br2O
_symmetry_space_group_name_H-M  'Pmm2'
_cell_length_a       3.66615
_cell_length_b       3.50952
_cell_length_c       6.30369
_cell_angle_alpha    90
_cell_angle_beta     90
_cell_angle_gamma    90

_symmetry_Int_Tables_number  25
_chemical_formula_structural  Br2O
_chemical_formula_sum  Br2O
_cell_volume  81.10609221353826
_cell_formula_units_Z  1
loop_
  _symmetry_equiv_pos_site_id
 _symmetry_equiv_pos_as_xyz
 1  'x, y, z'
loop_
 _atom_site_type_symbol
 _atom_site_label
 _atom_site_symmetry_multiplicity
 _atom_site_fract_x
 _atom_site_fract_y
 _atom_site_fract_z
 _atom_site_fract_occupancy
 Br  Br1  1  0.04983  0.00000  0.73278  1
 Br  Br2  1  0.04983  0.00000  0.26722  1
 O  O1  1  0.30033  0.00000  0.00000  1
