CIF file written using JARVIS-Tools package.
data_Mn3Cr3O8
_symmetry_space_group_name_H-M  'C2/m'
_cell_length_a       6.002
_cell_length_b       5.99644
_cell_length_c       10.2787
_cell_angle_alpha    73.0467
_cell_angle_beta     89.7184
_cell_angle_gamma    60.0308

_symmetry_Int_Tables_number  12
_chemical_formula_structural  Mn3Cr3O8
_chemical_formula_sum  Mn6Cr6O6
_cell_volume  302.09342050240224
_cell_formula_units_Z  2
loop_
  _symmetry_equiv_pos_site_id
 _symmetry_equiv_pos_as_xyz
 1  'x, y, z'
loop_
 _atom_site_type_symbol
 _atom_site_label
 _atom_site_symmetry_multiplicity
 _atom_site_fract_x
 _atom_site_fract_y
 _atom_site_fract_z
 _atom_site_fract_occupancy
 Cr  Cr1  1  0.56694  0.37256  0.68774  1
 Cr  Cr2  1  0.55807  0.87673  0.18704  1
 Cr  Cr3  1  0.05806  0.37743  0.18726  1
 Cr  Cr4  1  0.06693  0.87328  0.68796  1
 Cr  Cr5  1  0.55806  0.37834  0.18704  1
 Cr  Cr6  1  0.06694  0.37166  0.68796  1
 Mn  Mn1  1  0.81250  0.37500  0.43750  1
 Mn  Mn2  1  0.62553  0.75116  0.87209  1
 Mn  Mn3  1  0.11915  0.75402  0.37300  1
 Mn  Mn4  1  0.50584  0.99598  0.50200  1
 Mn  Mn5  1  0.31250  0.37500  0.93750  1
 Mn  Mn6  1  -0.00053  0.99884  0.00291  1
 O  O1  1  0.17363  0.12468  0.57679  1
 O  O2  1  0.42573  0.14131  0.29184  1
 O  O3  1  0.91410  0.62143  0.30118  1
 O  O4  1  0.69144  0.61415  0.08039  1
 O  O5  1  0.19927  0.60869  0.58316  1
 O  O6  1  0.64886  0.14297  0.06534  1
 O  O7  1  0.93356  0.13585  0.79461  1
 O  O8  1  0.42003  0.16376  0.80997  1
 O  O9  1  0.71090  0.12857  0.57382  1
 O  O10  1  0.45136  0.62532  0.29821  1
 O  O11  1  0.97614  0.60703  0.80966  1
 O  O12  1  0.91409  0.16351  0.30121  1
 O  O13  1  0.20498  0.58624  0.06503  1
 O  O14  1  0.20496  0.14386  0.06505  1
 O  O15  1  0.71090  0.58650  0.57379  1
 O  O16  1  0.42004  0.60614  0.80995  1
