CIF file written using JARVIS-Tools package.
data_SrYCoO4
_symmetry_space_group_name_H-M  'I4mm'
_cell_length_a       3.73775
_cell_length_b       7.47555
_cell_length_c       6.56696
_cell_angle_alpha    106.534
_cell_angle_beta     106.535
_cell_angle_gamma    89.9992

_symmetry_Int_Tables_number  107
_chemical_formula_structural  SrYCoO4
_chemical_formula_sum  Sr2Y2Co2O8
_cell_volume  167.9747854839169
_cell_formula_units_Z  2
loop_
  _symmetry_equiv_pos_site_id
 _symmetry_equiv_pos_as_xyz
 1  'x, y, z'
loop_
 _atom_site_type_symbol
 _atom_site_label
 _atom_site_symmetry_multiplicity
 _atom_site_fract_x
 _atom_site_fract_y
 _atom_site_fract_z
 _atom_site_fract_occupancy
 Co  Co1  1  0.00717  0.00359  0.01433  1
 Co  Co2  1  0.00715  0.50358  0.01431  1
 O  O1  1  0.84072  0.42040  0.68148  1
 O  O2  1  0.84076  0.92038  0.68149  1
 O  O3  1  0.17413  0.58706  0.34823  1
 O  O4  1  0.17410  0.08706  0.34824  1
 O  O5  1  0.48568  0.49282  0.97136  1
 O  O6  1  0.48569  0.99284  0.97138  1
 O  O7  1  0.98575  0.74285  0.97137  1
 O  O8  1  0.98561  0.24284  0.97136  1
 Sr  Sr1  1  0.64336  0.32168  0.28672  1
 Sr  Sr2  1  0.64338  0.82168  0.28672  1
 Y  Y1  1  0.36333  0.68161  0.72650  1
 Y  Y2  1  0.36318  0.18161  0.72651  1
