CIF file written using JARVIS-Tools package.
data_BrO
_symmetry_space_group_name_H-M  'P1'
_cell_length_a       4.24125
_cell_length_b       4.34954
_cell_length_c       5.51438
_cell_angle_alpha    123.167
_cell_angle_beta     101.656
_cell_angle_gamma    76.0956

_symmetry_Int_Tables_number  1
_chemical_formula_structural  BrO
_chemical_formula_sum  Br2O2
_cell_volume  82.34521637815565
_cell_formula_units_Z  2
loop_
  _symmetry_equiv_pos_site_id
 _symmetry_equiv_pos_as_xyz
 1  'x, y, z'
loop_
 _atom_site_type_symbol
 _atom_site_label
 _atom_site_symmetry_multiplicity
 _atom_site_fract_x
 _atom_site_fract_y
 _atom_site_fract_z
 _atom_site_fract_occupancy
 Br  Br1  1  0.06984  0.04725  0.97323  1
 Br  Br2  1  0.65211  0.27873  0.52939  1
 O  O1  1  0.47966  0.11736  0.08886  1
 O  O2  1  0.86505  0.44510  0.94899  1
