CIF file written using JARVIS-Tools package.
data_BrO2
_symmetry_space_group_name_H-M  'Pm'
_cell_length_a       4.81509
_cell_length_b       3.03243
_cell_length_c       3.94105
_cell_angle_alpha    90
_cell_angle_beta     92.2759
_cell_angle_gamma    90

_symmetry_Int_Tables_number  6
_chemical_formula_structural  BrO2
_chemical_formula_sum  BrO2
_cell_volume  57.49967751480783
_cell_formula_units_Z  1
loop_
  _symmetry_equiv_pos_site_id
 _symmetry_equiv_pos_as_xyz
 1  'x, y, z'
loop_
 _atom_site_type_symbol
 _atom_site_label
 _atom_site_symmetry_multiplicity
 _atom_site_fract_x
 _atom_site_fract_y
 _atom_site_fract_z
 _atom_site_fract_occupancy
 Br  Br1  1  0.58355  0.00000  -0.03957  1
 O  O1  1  -0.14153  0.00000  -0.46902  1
 O  O2  1  -0.04202  0.00000  -0.09141  1
