CIF file written using JARVIS-Tools package.
data_SrTiN
_symmetry_space_group_name_H-M  'Pm'
_cell_length_a       6.60413
_cell_length_b       6.60413
_cell_length_c       4.7626
_cell_angle_alpha    90
_cell_angle_beta     90
_cell_angle_gamma    90

_symmetry_Int_Tables_number  6
_chemical_formula_structural  SrTiN
_chemical_formula_sum  SrTiN
_cell_volume  207.71849763256967
_cell_formula_units_Z  1
loop_
  _symmetry_equiv_pos_site_id
 _symmetry_equiv_pos_as_xyz
 1  'x, y, z'
loop_
 _atom_site_type_symbol
 _atom_site_label
 _atom_site_symmetry_multiplicity
 _atom_site_fract_x
 _atom_site_fract_y
 _atom_site_fract_z
 _atom_site_fract_occupancy
 N  N1  1  0.27423  0.00052  0.00000  1
 Sr  Sr1  1  0.00015  0.33748  0.00000  1
 Ti  Ti1  1  -0.07509  -0.00407  0.00000  1
