CIF file written using JARVIS-Tools package.
data_Na2Cu
_symmetry_space_group_name_H-M  'Pmmm'
_cell_length_a       3.59842
_cell_length_b       2.80953
_cell_length_c       7.32457
_cell_angle_alpha    90
_cell_angle_beta     90
_cell_angle_gamma    90

_symmetry_Int_Tables_number  47
_chemical_formula_structural  Na2Cu
_chemical_formula_sum  Na2Cu
_cell_volume  74.05047048616275
_cell_formula_units_Z  1
loop_
  _symmetry_equiv_pos_site_id
 _symmetry_equiv_pos_as_xyz
 1  'x, y, z'
loop_
 _atom_site_type_symbol
 _atom_site_label
 _atom_site_symmetry_multiplicity
 _atom_site_fract_x
 _atom_site_fract_y
 _atom_site_fract_z
 _atom_site_fract_occupancy
 Cu  Cu1  1  0.46659  0.00000  0.00000  1
 Na  Na1  1  -0.03329  0.00000  0.71776  1
 Na  Na2  1  -0.03329  0.00000  0.28224  1
