CIF file written using JARVIS-Tools package.
data_ZnNi2O4
_symmetry_space_group_name_H-M  'I4_1/amd'
_cell_length_a       5.83153
_cell_length_b       5.83154
_cell_length_c       5.83154
_cell_angle_alpha    120.149
_cell_angle_beta     120.149
_cell_angle_gamma    89.742

_symmetry_Int_Tables_number  141
_chemical_formula_structural  ZnNi2O4
_chemical_formula_sum  Zn2Ni4O8
_cell_volume  139.9104093870728
_cell_formula_units_Z  2
loop_
  _symmetry_equiv_pos_site_id
 _symmetry_equiv_pos_as_xyz
 1  'x, y, z'
loop_
 _atom_site_type_symbol
 _atom_site_label
 _atom_site_symmetry_multiplicity
 _atom_site_fract_x
 _atom_site_fract_y
 _atom_site_fract_z
 _atom_site_fract_occupancy
 Ni  Ni1  1  0.87500  0.12500  0.25000  1
 Ni  Ni2  1  0.37500  0.12500  0.25000  1
 Ni  Ni3  1  0.87500  0.62500  0.75000  1
 Ni  Ni4  1  0.87500  0.12500  0.75000  1
 O  O1  1  0.66502  0.88860  0.77642  1
 O  O2  1  0.11140  0.88782  0.77642  1
 O  O3  1  0.11140  0.33498  0.22358  1
 O  O4  1  0.08498  0.36140  0.72358  1
 O  O5  1  0.63782  0.36140  0.27642  1
 O  O6  1  0.63860  0.36218  0.72358  1
 O  O7  1  0.11218  0.88860  0.22358  1
 O  O8  1  0.63860  0.91502  0.27642  1
 Zn  Zn1  1  0.50000  0.50000  0.00000  1
 Zn  Zn2  1  0.25000  0.75000  0.50000  1
