CIF file written using JARVIS-Tools package.
data_BaZnCl
_symmetry_space_group_name_H-M  'Amm2'
_cell_length_a       5.62011
_cell_length_b       5.6219
_cell_length_c       3.92307
_cell_angle_alpha    90
_cell_angle_beta     90
_cell_angle_gamma    60.2083

_symmetry_Int_Tables_number  38
_chemical_formula_structural  BaZnCl
_chemical_formula_sum  BaZnCl
_cell_volume  107.57010322365029
_cell_formula_units_Z  1
loop_
  _symmetry_equiv_pos_site_id
 _symmetry_equiv_pos_as_xyz
 1  'x, y, z'
loop_
 _atom_site_type_symbol
 _atom_site_label
 _atom_site_symmetry_multiplicity
 _atom_site_fract_x
 _atom_site_fract_y
 _atom_site_fract_z
 _atom_site_fract_occupancy
 Ba  Ba1  1  0.11255  -0.20844  0.00000  1
 Cl  Cl1  1  0.44584  0.12493  0.00000  1
 Zn  Zn1  1  -0.22123  0.45755  0.00000  1
