CIF file written using JARVIS-Tools package.
data_PBr2
_symmetry_space_group_name_H-M  'Pm'
_cell_length_a       3.98768
_cell_length_b       3.91006
_cell_length_c       6.43362
_cell_angle_alpha    120.793
_cell_angle_beta     90.0386
_cell_angle_gamma    89.997

_symmetry_Int_Tables_number  6
_chemical_formula_structural  PBr2
_chemical_formula_sum  PBr2
_cell_volume  86.17136386901987
_cell_formula_units_Z  1
loop_
  _symmetry_equiv_pos_site_id
 _symmetry_equiv_pos_as_xyz
 1  'x, y, z'
loop_
 _atom_site_type_symbol
 _atom_site_label
 _atom_site_symmetry_multiplicity
 _atom_site_fract_x
 _atom_site_fract_y
 _atom_site_fract_z
 _atom_site_fract_occupancy
 Br  Br1  1  0.46151  0.38675  0.95829  1
 Br  Br2  1  0.96205  0.25858  0.40822  1
 P  P1  1  0.96152  0.93208  0.00539  1
