CIF file written using JARVIS-Tools package.
data_V4OF11
_symmetry_space_group_name_H-M  'P2'
_cell_length_a       5.00511
_cell_length_b       7.24297
_cell_length_c       5.35705
_cell_angle_alpha    95.5539
_cell_angle_beta     90.0002
_cell_angle_gamma    90.0019

_symmetry_Int_Tables_number  3
_chemical_formula_structural  V4OF11
_chemical_formula_sum  V4OF
_cell_volume  193.29164060266606
_cell_formula_units_Z  1
loop_
  _symmetry_equiv_pos_site_id
 _symmetry_equiv_pos_as_xyz
 1  'x, y, z'
loop_
 _atom_site_type_symbol
 _atom_site_label
 _atom_site_symmetry_multiplicity
 _atom_site_fract_x
 _atom_site_fract_y
 _atom_site_fract_z
 _atom_site_fract_occupancy
 F  F1  1  0.86897  0.25001  0.00002  1
 F  F2  1  0.81839  0.56327  0.31569  1
 F  F3  1  0.81837  0.93673  0.68433  1
 F  F4  1  0.68660  0.93329  0.18364  1
 F  F5  1  0.68660  0.56672  0.81637  1
 F  F6  1  0.38533  0.74999  0.49999  1
 F  F7  1  0.31500  0.43673  0.18243  1
 F  F8  1  0.31495  0.06327  0.81754  1
 F  F9  1  0.17960  0.05851  0.31694  1
 F  F10  1  0.17956  0.44147  0.68304  1
 F  F11  1  0.13127  0.75001  -0.00001  1
 O  O1  1  0.59397  0.25000  0.50002  1
 V  V1  1  0.50914  0.48760  0.50007  1
 V  V2  1  0.50914  0.01239  0.49994  1
 V  V3  1  0.00155  0.50078  0.99987  1
 V  V4  1  0.00153  -0.00078  0.00013  1
