CIF file written using JARVIS-Tools package.
data_P2Br
_symmetry_space_group_name_H-M  'C2/m'
_cell_length_a       3.5189
_cell_length_b       3.51876
_cell_length_c       6.8341
_cell_angle_alpha    97.1528
_cell_angle_beta     67.577
_cell_angle_gamma    59.4447

_symmetry_Int_Tables_number  12
_chemical_formula_structural  P2Br
_chemical_formula_sum  P2Br
_cell_volume  61.73678574190749
_cell_formula_units_Z  1
loop_
  _symmetry_equiv_pos_site_id
 _symmetry_equiv_pos_as_xyz
 1  'x, y, z'
loop_
 _atom_site_type_symbol
 _atom_site_label
 _atom_site_symmetry_multiplicity
 _atom_site_fract_x
 _atom_site_fract_y
 _atom_site_fract_z
 _atom_site_fract_occupancy
 Br  Br1  1  -0.00735  0.06036  0.01977  1
 P  P1  1  0.70552  0.97654  0.62145  1
 P  P2  1  0.27990  0.14413  0.41790  1
