CIF file written using JARVIS-Tools package.
data_Li3Co4O8
_symmetry_space_group_name_H-M  'R-3m'
_cell_length_a       5.6523
_cell_length_b       5.69678
_cell_length_c       9.79044
_cell_angle_alpha    106.643
_cell_angle_beta     90
_cell_angle_gamma    119.742

_symmetry_Int_Tables_number  166
_chemical_formula_structural  Li3Co4O8
_chemical_formula_sum  Li6Co8O6
_cell_volume  258.40158858565735
_cell_formula_units_Z  2
loop_
  _symmetry_equiv_pos_site_id
 _symmetry_equiv_pos_as_xyz
 1  'x, y, z'
loop_
 _atom_site_type_symbol
 _atom_site_label
 _atom_site_symmetry_multiplicity
 _atom_site_fract_x
 _atom_site_fract_y
 _atom_site_fract_z
 _atom_site_fract_occupancy
 Co  Co1  1  -0.00001  0.49999  0.00000  1
 Co  Co2  1  0.75000  0.50000  0.25000  1
 Co  Co3  1  0.74999  0.50000  0.75000  1
 Co  Co4  1  -0.00000  0.50001  0.50000  1
 Co  Co5  1  0.24999  0.50000  0.75000  1
 Co  Co6  1  0.25000  0.50000  0.25000  1
 Co  Co7  1  0.50000  0.50001  0.50000  1
 Co  Co8  1  0.49999  0.49999  -0.00000  1
 Li  Li1  1  0.24996  0.00000  0.75001  1
 Li  Li2  1  0.74996  -0.00000  0.74999  1
 Li  Li3  1  0.00004  0.00004  0.50001  1
 Li  Li4  1  0.50000  -0.00004  -0.00001  1
 Li  Li5  1  0.75007  -0.00002  0.24998  1
 Li  Li6  1  0.25009  0.00002  0.25002  1
 O  O1  1  0.89654  0.28819  0.63218  1
 O  O2  1  0.60345  0.71181  0.86782  1
 O  O3  1  0.14070  0.28141  0.38024  1
 O  O4  1  0.35929  0.71859  0.11976  1
 O  O5  1  0.85929  0.71860  0.61977  1
 O  O6  1  0.39654  0.28818  0.13218  1
 O  O7  1  0.64069  0.28140  0.88023  1
 O  O8  1  0.89163  0.28818  0.13218  1
 O  O9  1  0.39164  0.28819  0.63218  1
 O  O10  1  0.10835  0.71181  0.86782  1
 O  O11  1  0.60836  0.71182  0.36782  1
 O  O12  1  0.14408  0.28818  0.87973  1
 O  O13  1  0.64409  0.28820  0.37973  1
 O  O14  1  0.85590  0.71180  0.12027  1
 O  O15  1  0.35590  0.71182  0.62027  1
 O  O16  1  0.10345  0.71182  0.36782  1
