CIF file written using JARVIS-Tools package.
data_Li2Ni3SnO8
_symmetry_space_group_name_H-M  'R-3m'
_cell_length_a       5.81036
_cell_length_b       5.95597
_cell_length_c       8.3159
_cell_angle_alpha    88.0087
_cell_angle_beta     90.0012
_cell_angle_gamma    90.0149

_symmetry_Int_Tables_number  166
_chemical_formula_structural  Li2Ni3SnO8
_chemical_formula_sum  Li4Ni6Sn2O6
_cell_volume  287.6088398943927
_cell_formula_units_Z  2
loop_
  _symmetry_equiv_pos_site_id
 _symmetry_equiv_pos_as_xyz
 1  'x, y, z'
loop_
 _atom_site_type_symbol
 _atom_site_label
 _atom_site_symmetry_multiplicity
 _atom_site_fract_x
 _atom_site_fract_y
 _atom_site_fract_z
 _atom_site_fract_occupancy
 Li  Li1  1  0.00003  0.23842  0.11919  1
 Li  Li2  1  0.50002  0.73843  0.61919  1
 Li  Li3  1  -0.00002  0.76158  0.88081  1
 Li  Li4  1  0.49997  0.26158  0.38081  1
 Ni  Ni1  1  0.25000  0.25000  0.75000  1
 Ni  Ni2  1  0.75000  0.75000  0.25000  1
 Ni  Ni3  1  0.50000  0.00000  -0.00000  1
 Ni  Ni4  1  -0.00000  0.50000  0.50000  1
 Ni  Ni5  1  0.25000  0.75000  0.25000  1
 Ni  Ni6  1  0.75000  0.25000  0.75000  1
 O  O1  1  0.50007  0.02946  0.76476  1
 O  O2  1  0.00006  0.52945  0.26476  1
 O  O3  1  0.76865  0.26479  0.51670  1
 O  O4  1  -0.00008  0.47054  0.73524  1
 O  O5  1  0.49994  0.97055  0.23524  1
 O  O6  1  0.23134  0.73520  0.48331  1
 O  O7  1  0.73135  0.23520  0.98330  1
 O  O8  1  0.26867  0.23510  0.98327  1
 O  O9  1  0.73134  0.76491  0.01673  1
 O  O10  1  -0.00001  0.03359  0.74821  1
 O  O11  1  0.49999  0.53359  0.24821  1
 O  O12  1  0.23133  0.26490  0.51673  1
 O  O13  1  0.76866  0.73509  0.48327  1
 O  O14  1  0.00002  0.96641  0.25179  1
 O  O15  1  0.50001  0.46641  0.75179  1
 O  O16  1  0.26866  0.76481  0.01669  1
 Sn  Sn1  1  0.50000  0.50000  -0.00000  1
 Sn  Sn2  1  -0.00000  -0.00000  0.50000  1
