CIF file written using JARVIS-Tools package.
data_NaSe
_symmetry_space_group_name_H-M  'Cm'
_cell_length_a       4.67512
_cell_length_b       4.67991
_cell_length_c       5.53554
_cell_angle_alpha    87.9558
_cell_angle_beta     88.1001
_cell_angle_gamma    59.4738

_symmetry_Int_Tables_number  8
_chemical_formula_structural  NaSe
_chemical_formula_sum  Na2Se2
_cell_volume  104.24394541502905
_cell_formula_units_Z  2
loop_
  _symmetry_equiv_pos_site_id
 _symmetry_equiv_pos_as_xyz
 1  'x, y, z'
loop_
 _atom_site_type_symbol
 _atom_site_label
 _atom_site_symmetry_multiplicity
 _atom_site_fract_x
 _atom_site_fract_y
 _atom_site_fract_z
 _atom_site_fract_occupancy
 Na  Na1  1  0.88783  0.18074  0.05999  1
 Na  Na2  1  0.57195  0.86485  0.56487  1
 Se  Se1  1  0.21002  0.50130  0.80182  1
 Se  Se2  1  0.26058  0.55366  0.34445  1
