CIF file written using JARVIS-Tools package.
data_Na3Se
_symmetry_space_group_name_H-M  'P-3m1'
_cell_length_a       7.81604
_cell_length_b       4.82163
_cell_length_c       4.82138
_cell_angle_alpha    59.9942
_cell_angle_beta     107.962
_cell_angle_gamma    72.0285

_symmetry_Int_Tables_number  164
_chemical_formula_structural  Na3Se
_chemical_formula_sum  Na3Se
_cell_volume  123.82727919690326
_cell_formula_units_Z  1
loop_
  _symmetry_equiv_pos_site_id
 _symmetry_equiv_pos_as_xyz
 1  'x, y, z'
loop_
 _atom_site_type_symbol
 _atom_site_label
 _atom_site_symmetry_multiplicity
 _atom_site_fract_x
 _atom_site_fract_y
 _atom_site_fract_z
 _atom_site_fract_occupancy
 Na  Na1  1  0.16853  0.80655  0.08932  1
 Na  Na2  1  0.51962  0.12227  0.10719  1
 Na  Na3  1  0.87071  0.43780  0.12483  1
 Se  Se1  1  0.01964  0.62215  0.60709  1
