CIF file written using JARVIS-Tools package.
data_CNCl
_symmetry_space_group_name_H-M  'Pmmn'
_cell_length_a       3.73114
_cell_length_b       5.42916
_cell_length_c       5.63995
_cell_angle_alpha    90
_cell_angle_beta     90
_cell_angle_gamma    90

_symmetry_Int_Tables_number  59
_chemical_formula_structural  CNCl
_chemical_formula_sum  C2N2Cl2
_cell_volume  114.24842707309796
_cell_formula_units_Z  2
loop_
  _symmetry_equiv_pos_site_id
 _symmetry_equiv_pos_as_xyz
 1  'x, y, z'
loop_
 _atom_site_type_symbol
 _atom_site_label
 _atom_site_symmetry_multiplicity
 _atom_site_fract_x
 _atom_site_fract_y
 _atom_site_fract_z
 _atom_site_fract_occupancy
 C  C1  1  0.50000  0.50000  0.56574  1
 C  C2  1  0.00000  0.00000  0.43426  1
 Cl  Cl1  1  0.50000  0.50000  0.85263  1
 Cl  Cl2  1  0.00000  0.00000  0.14737  1
 N  N1  1  0.00000  0.00000  0.64115  1
 N  N2  1  0.50000  0.50000  0.35885  1
