CIF file written using JARVIS-Tools package.
data_RbSnBr3
_symmetry_space_group_name_H-M  'Pm'
_cell_length_a       5.80751
_cell_length_b       5.80722
_cell_length_c       5.82165
_cell_angle_alpha    90.1307
_cell_angle_beta     90.032
_cell_angle_gamma    89.9986

_symmetry_Int_Tables_number  6
_chemical_formula_structural  RbSnBr3
_chemical_formula_sum  RbSnBr3
_cell_volume  196.33779014115152
_cell_formula_units_Z  1
loop_
  _symmetry_equiv_pos_site_id
 _symmetry_equiv_pos_as_xyz
 1  'x, y, z'
loop_
 _atom_site_type_symbol
 _atom_site_label
 _atom_site_symmetry_multiplicity
 _atom_site_fract_x
 _atom_site_fract_y
 _atom_site_fract_z
 _atom_site_fract_occupancy
 Br  Br1  1  0.50576  0.51330  0.97865  1
 Br  Br2  1  0.50647  0.01062  0.46400  1
 Br  Br3  1  0.00609  0.50984  0.46368  1
 Rb  Rb1  1  0.00562  0.00595  0.04162  1
 Sn  Sn1  1  0.50606  0.51030  0.48205  1
