CIF file written using JARVIS-Tools package.
data_CNCl
_symmetry_space_group_name_H-M  'Pm'
_cell_length_a       3.79148
_cell_length_b       5.06324
_cell_length_c       3.6044
_cell_angle_alpha    90
_cell_angle_beta     90
_cell_angle_gamma    102.74

_symmetry_Int_Tables_number  6
_chemical_formula_structural  CNCl
_chemical_formula_sum  CNCl
_cell_volume  67.49099359874435
_cell_formula_units_Z  1
loop_
  _symmetry_equiv_pos_site_id
 _symmetry_equiv_pos_as_xyz
 1  'x, y, z'
loop_
 _atom_site_type_symbol
 _atom_site_label
 _atom_site_symmetry_multiplicity
 _atom_site_fract_x
 _atom_site_fract_y
 _atom_site_fract_z
 _atom_site_fract_occupancy
 C  C1  1  0.70309  0.03776  0.00000  1
 Cl  Cl1  1  -0.01779  0.33113  0.00000  1
 N  N1  1  -0.50215  -0.17097  0.00000  1
