CIF file written using JARVIS-Tools package.
data_RbSnBr
_symmetry_space_group_name_H-M  'Pm'
_cell_length_a       6.27114
_cell_length_b       5.90107
_cell_length_c       3.50398
_cell_angle_alpha    90
_cell_angle_beta     90
_cell_angle_gamma    103.754

_symmetry_Int_Tables_number  6
_chemical_formula_structural  RbSnBr
_chemical_formula_sum  RbSnBr
_cell_volume  125.95136920944803
_cell_formula_units_Z  1
loop_
  _symmetry_equiv_pos_site_id
 _symmetry_equiv_pos_as_xyz
 1  'x, y, z'
loop_
 _atom_site_type_symbol
 _atom_site_label
 _atom_site_symmetry_multiplicity
 _atom_site_fract_x
 _atom_site_fract_y
 _atom_site_fract_z
 _atom_site_fract_occupancy
 Br  Br1  1  -0.08743  -0.13028  0.00000  1
 Rb  Rb1  1  0.44836  0.02973  0.00000  1
 Sn  Sn1  1  0.01131  0.41942  0.00000  1
