CIF file written using JARVIS-Tools package.
data_Li2CrO3
_symmetry_space_group_name_H-M  'C2/m'
_cell_length_a       2.87546
_cell_length_b       9.60612
_cell_length_c       7.56692
_cell_angle_alpha    84.8607
_cell_angle_beta     79.0432
_cell_angle_gamma    81.3966

_symmetry_Int_Tables_number  12
_chemical_formula_structural  Li2CrO3
_chemical_formula_sum  Li8Cr4O2
_cell_volume  202.49119368309084
_cell_formula_units_Z  4
loop_
  _symmetry_equiv_pos_site_id
 _symmetry_equiv_pos_as_xyz
 1  'x, y, z'
loop_
 _atom_site_type_symbol
 _atom_site_label
 _atom_site_symmetry_multiplicity
 _atom_site_fract_x
 _atom_site_fract_y
 _atom_site_fract_z
 _atom_site_fract_occupancy
 Cr  Cr1  1  0.67647  0.49719  0.15000  1
 Cr  Cr2  1  -0.00972  0.50281  0.51667  1
 Cr  Cr3  1  0.67634  0.99719  0.65000  1
 Cr  Cr4  1  -0.00980  0.00281  0.01666  1
 Li  Li1  1  0.67333  0.74378  0.90964  1
 Li  Li2  1  0.67327  0.24379  0.40962  1
 Li  Li3  1  0.33330  0.00000  0.33333  1
 Li  Li4  1  0.99358  0.75621  0.25705  1
 Li  Li5  1  0.33327  0.75000  0.58335  1
 Li  Li6  1  0.33333  0.25000  0.08332  1
 Li  Li7  1  0.33335  0.50000  0.83334  1
 Li  Li8  1  0.99349  0.25622  0.75703  1
 O  O1  1  0.82343  0.88161  0.47140  1
 O  O2  1  0.50673  0.10688  0.87957  1
 O  O3  1  0.50683  0.60688  0.37957  1
 O  O4  1  0.15980  0.89312  0.78709  1
 O  O5  1  0.15990  0.39312  0.28709  1
 O  O6  1  0.16379  0.61471  0.05794  1
 O  O7  1  0.50296  0.38529  0.60873  1
 O  O8  1  0.50289  0.88529  0.10873  1
 O  O9  1  0.84311  0.11839  0.19526  1
 O  O10  1  0.82353  0.38161  0.97140  1
 O  O11  1  0.16366  0.11471  0.55794  1
 O  O12  1  0.84316  0.61839  0.69527  1
