CIF file written using JARVIS-Tools package.
data_GeC2
_symmetry_space_group_name_H-M  'Pmmm'
_cell_length_a       3.03879
_cell_length_b       3.16858
_cell_length_c       3.99438
_cell_angle_alpha    90
_cell_angle_beta     89.999
_cell_angle_gamma    90

_symmetry_Int_Tables_number  47
_chemical_formula_structural  GeC2
_chemical_formula_sum  GeC2
_cell_volume  38.46047780713696
_cell_formula_units_Z  1
loop_
  _symmetry_equiv_pos_site_id
 _symmetry_equiv_pos_as_xyz
 1  'x, y, z'
loop_
 _atom_site_type_symbol
 _atom_site_label
 _atom_site_symmetry_multiplicity
 _atom_site_fract_x
 _atom_site_fract_y
 _atom_site_fract_z
 _atom_site_fract_occupancy
 C  C1  1  -0.36668  0.00000  0.13778  1
 C  C2  1  -0.36665  0.00000  0.46222  1
 Ge  Ge1  1  0.13333  0.00000  -0.20000  1
