CIF file written using JARVIS-Tools package.
data_Na3Se
_symmetry_space_group_name_H-M  'Amm2'
_cell_length_a       4.01412
_cell_length_b       7.94886
_cell_length_c       4.31671
_cell_angle_alpha    74.2398
_cell_angle_beta     90.0009
_cell_angle_gamma    89.9926

_symmetry_Int_Tables_number  38
_chemical_formula_structural  Na3Se
_chemical_formula_sum  Na3Se
_cell_volume  132.55866949408642
_cell_formula_units_Z  1
loop_
  _symmetry_equiv_pos_site_id
 _symmetry_equiv_pos_as_xyz
 1  'x, y, z'
loop_
 _atom_site_type_symbol
 _atom_site_label
 _atom_site_symmetry_multiplicity
 _atom_site_fract_x
 _atom_site_fract_y
 _atom_site_fract_z
 _atom_site_fract_occupancy
 Na  Na1  1  0.89882  0.89430  0.01077  1
 Na  Na2  1  0.39874  0.26256  0.32699  1
 Na  Na3  1  0.39861  0.58325  0.66666  1
 Se  Se1  1  0.89865  0.52860  0.19396  1
