CIF file written using JARVIS-Tools package.
data_NaZn2
_symmetry_space_group_name_H-M  'P2/m'
_cell_length_a       5.62882
_cell_length_b       2.7552
_cell_length_c       4.54478
_cell_angle_alpha    90
_cell_angle_beta     114.202
_cell_angle_gamma    90

_symmetry_Int_Tables_number  10
_chemical_formula_structural  NaZn2
_chemical_formula_sum  NaZn2
_cell_volume  64.28784657168451
_cell_formula_units_Z  1
loop_
  _symmetry_equiv_pos_site_id
 _symmetry_equiv_pos_as_xyz
 1  'x, y, z'
loop_
 _atom_site_type_symbol
 _atom_site_label
 _atom_site_symmetry_multiplicity
 _atom_site_fract_x
 _atom_site_fract_y
 _atom_site_fract_z
 _atom_site_fract_occupancy
 Na  Na1  1  0.46667  0.00000  0.13333  1
 Zn  Zn1  1  -0.14555  0.00000  -0.17374  1
 Zn  Zn2  1  0.07889  0.00000  0.44041  1
