CIF file written using JARVIS-Tools package.
data_LiTiCoO4
_symmetry_space_group_name_H-M  'I2_12_12_1'
_cell_length_a       5.75769
_cell_length_b       8.28515
_cell_length_c       5.75767
_cell_angle_alpha    90.8123
_cell_angle_beta     87.9433
_cell_angle_gamma    90.8122

_symmetry_Int_Tables_number  24
_chemical_formula_structural  LiTiCoO4
_chemical_formula_sum  Li4Ti4Co4O6
_cell_volume  274.4291578309886
_cell_formula_units_Z  4
loop_
  _symmetry_equiv_pos_site_id
 _symmetry_equiv_pos_as_xyz
 1  'x, y, z'
loop_
 _atom_site_type_symbol
 _atom_site_label
 _atom_site_symmetry_multiplicity
 _atom_site_fract_x
 _atom_site_fract_y
 _atom_site_fract_z
 _atom_site_fract_occupancy
 Co  Co1  1  0.00006  0.49993  0.00007  1
 Co  Co2  1  0.24994  0.75007  0.24993  1
 Co  Co3  1  0.50007  -0.00007  0.50006  1
 Co  Co4  1  0.74993  0.25007  0.74994  1
 Li  Li1  1  0.50184  0.37500  0.24816  1
 Li  Li2  1  -0.00185  0.12500  0.25187  1
 Li  Li3  1  0.49813  0.62500  0.75185  1
 Li  Li4  1  0.00185  0.87500  0.74815  1
 O  O1  1  0.01140  0.73389  0.02216  1
 O  O2  1  0.23376  0.48610  0.74719  1
 O  O3  1  0.73378  0.98610  0.24718  1
 O  O4  1  -0.00724  0.74053  0.47934  1
 O  O5  1  0.77065  0.50947  0.25725  1
 O  O6  1  0.27066  0.00947  0.75724  1
 O  O7  1  0.00281  0.26390  0.51624  1
 O  O8  1  0.50282  0.76390  0.01622  1
 O  O9  1  -0.01078  0.26674  0.97847  1
 O  O10  1  0.22784  0.51611  0.23861  1
 O  O11  1  0.77153  0.48326  0.76078  1
 O  O12  1  0.27154  0.98326  0.26077  1
 O  O13  1  0.49275  0.24053  0.97935  1
 O  O14  1  0.72784  0.01611  0.73860  1
 O  O15  1  0.48923  0.76674  0.47846  1
 O  O16  1  0.51139  0.23389  0.52216  1
 Ti  Ti1  1  0.73863  0.73862  0.23861  1
 Ti  Ti2  1  0.23863  0.23862  0.73863  1
 Ti  Ti3  1  0.01137  0.51138  0.51137  1
 Ti  Ti4  1  0.51139  0.01138  0.01136  1
