CIF file written using JARVIS-Tools package.
data_Li2Fe3TeO8
_symmetry_space_group_name_H-M  'P-1'
_cell_length_a       5.8672
_cell_length_b       5.95231
_cell_length_c       10.1286
_cell_angle_alpha    105.328
_cell_angle_beta     90.4587
_cell_angle_gamma    62.6968

_symmetry_Int_Tables_number  2
_chemical_formula_structural  Li2Fe3TeO8
_chemical_formula_sum  Li4Fe6Te2O6
_cell_volume  300.47753452463604
_cell_formula_units_Z  2
loop_
  _symmetry_equiv_pos_site_id
 _symmetry_equiv_pos_as_xyz
 1  'x, y, z'
loop_
 _atom_site_type_symbol
 _atom_site_label
 _atom_site_symmetry_multiplicity
 _atom_site_fract_x
 _atom_site_fract_y
 _atom_site_fract_z
 _atom_site_fract_occupancy
 Fe  Fe1  1  0.24994  0.00006  0.75001  1
 Fe  Fe2  1  0.00424  0.00382  0.49787  1
 Fe  Fe3  1  0.75005  0.99996  0.25000  1
 Fe  Fe4  1  0.49578  -0.00384  0.00214  1
 Fe  Fe5  1  0.25005  0.99996  0.25000  1
 Fe  Fe6  1  0.74995  0.00004  0.75000  1
 Li  Li1  1  0.29264  0.40478  0.57065  1
 Li  Li2  1  0.20729  0.59527  0.92935  1
 Li  Li3  1  0.79574  0.39651  0.07111  1
 Li  Li4  1  0.70434  0.60342  0.42889  1
 O  O1  1  0.59582  0.80539  0.14592  1
 O  O2  1  0.07532  0.81174  0.64062  1
 O  O3  1  0.63108  0.75584  0.63751  1
 O  O4  1  0.42458  0.18833  0.85939  1
 O  O5  1  0.90428  0.19453  0.35407  1
 O  O6  1  0.86882  0.24425  0.86248  1
 O  O7  1  0.35242  0.25225  0.36537  1
 O  O8  1  0.14392  0.24127  0.13356  1
 O  O9  1  0.35616  0.75867  0.36645  1
 O  O10  1  0.40415  0.73649  0.86423  1
 O  O11  1  0.89641  0.74975  0.35914  1
 O  O12  1  0.85774  0.75615  0.86530  1
 O  O13  1  0.64216  0.24391  0.63469  1
 O  O14  1  0.09575  0.26358  0.63576  1
 O  O15  1  0.60369  0.25017  0.14087  1
 O  O16  1  0.14768  0.74767  0.13463  1
 Te  Te1  1  0.25005  0.49997  0.25001  1
 Te  Te2  1  0.74994  0.50004  0.74999  1
