CIF file written using JARVIS-Tools package.
data_RuCN
_symmetry_space_group_name_H-M  'R3m'
_cell_length_a       3.23783
_cell_length_b       3.23783
_cell_length_c       3.23783
_cell_angle_alpha    94.655
_cell_angle_beta     94.655
_cell_angle_gamma    94.6549

_symmetry_Int_Tables_number  160
_chemical_formula_structural  RuCN
_chemical_formula_sum  RuCN
_cell_volume  33.588677436516946
_cell_formula_units_Z  1
loop_
  _symmetry_equiv_pos_site_id
 _symmetry_equiv_pos_as_xyz
 1  'x, y, z'
loop_
 _atom_site_type_symbol
 _atom_site_label
 _atom_site_symmetry_multiplicity
 _atom_site_fract_x
 _atom_site_fract_y
 _atom_site_fract_z
 _atom_site_fract_occupancy
 C  C1  1  0.60275  0.60275  0.60275  1
 N  N1  1  0.36567  0.36567  0.36567  1
 Ru  Ru1  1  0.97658  0.97658  0.97658  1
