CIF file written using JARVIS-Tools package.
data_Ca2CuAs2
_symmetry_space_group_name_H-M  'C2/m'
_cell_length_a       4.67466
_cell_length_b       4.67466
_cell_length_c       5.98282
_cell_angle_alpha    96.3339
_cell_angle_beta     96.3339
_cell_angle_gamma    75.6713

_symmetry_Int_Tables_number  12
_chemical_formula_structural  Ca2CuAs2
_chemical_formula_sum  Ca2CuAs2
_cell_volume  125.43041910690705
_cell_formula_units_Z  1
loop_
  _symmetry_equiv_pos_site_id
 _symmetry_equiv_pos_as_xyz
 1  'x, y, z'
loop_
 _atom_site_type_symbol
 _atom_site_label
 _atom_site_symmetry_multiplicity
 _atom_site_fract_x
 _atom_site_fract_y
 _atom_site_fract_z
 _atom_site_fract_occupancy
 As  As1  1  0.27412  0.27412  0.24375  1
 As  As2  1  0.72588  0.72588  0.75625  1
 Ca  Ca1  1  0.32162  0.32162  0.74279  1
 Ca  Ca2  1  0.67838  0.67838  0.25721  1
 Cu  Cu1  1  0.00000  0.00000  0.00000  1
