CIF file written using JARVIS-Tools package.
data_Li7Mn4CoO12
_symmetry_space_group_name_H-M  'P-1'
_cell_length_a       5.06694
_cell_length_b       7.58036
_cell_length_c       5.64023
_cell_angle_alpha    100.734
_cell_angle_beta     89.9987
_cell_angle_gamma    109.321

_symmetry_Int_Tables_number  2
_chemical_formula_structural  Li7Mn4CoO12
_chemical_formula_sum  Li7Mn4CoO2
_cell_volume  200.41461934704085
_cell_formula_units_Z  1
loop_
  _symmetry_equiv_pos_site_id
 _symmetry_equiv_pos_as_xyz
 1  'x, y, z'
loop_
 _atom_site_type_symbol
 _atom_site_label
 _atom_site_symmetry_multiplicity
 _atom_site_fract_x
 _atom_site_fract_y
 _atom_site_fract_z
 _atom_site_fract_occupancy
 Co  Co1  1  0.33333  0.33333  0.33333  1
 Li  Li1  1  0.48715  0.00179  0.25016  1
 Li  Li2  1  0.17952  0.66488  0.41651  1
 Li  Li3  1  0.83588  0.33440  0.07993  1
 Li  Li4  1  0.33333  0.33333  0.83333  1
 Li  Li5  1  0.17320  0.65582  0.91385  1
 Li  Li6  1  0.49347  0.01085  0.75282  1
 Li  Li7  1  0.83079  0.33227  0.58674  1
 Mn  Mn1  1  0.00121  0.00924  0.50212  1
 Mn  Mn2  1  0.66545  0.65743  0.16455  1
 Mn  Mn3  1  0.00105  0.00861  0.00228  1
 Mn  Mn4  1  0.66561  0.65805  0.66439  1
 O  O1  1  0.29039  0.50789  0.61823  1
 O  O2  1  0.37628  0.15878  0.04843  1
 O  O3  1  0.60958  0.82606  0.45726  1
 O  O4  1  0.05709  0.84060  0.20941  1
 O  O5  1  0.89789  0.14896  0.28696  1
 O  O6  1  0.37737  0.15914  0.53101  1
 O  O7  1  0.28929  0.50753  0.13565  1
 O  O8  1  0.60424  0.82193  0.95489  1
 O  O9  1  0.06243  0.84474  0.71178  1
 O  O10  1  0.75644  0.51402  0.87824  1
 O  O11  1  0.76878  0.51770  0.37970  1
 O  O12  1  0.91023  0.15265  0.78843  1
