CIF file written using JARVIS-Tools package.
data_CaCu2O4
_symmetry_space_group_name_H-M  'I4_1/a'
_cell_length_a       6.24076
_cell_length_b       6.24076
_cell_length_c       6.24076
_cell_angle_alpha    125.345
_cell_angle_beta     125.345
_cell_angle_gamma    80.9673

_symmetry_Int_Tables_number  88
_chemical_formula_structural  CaCu2O4
_chemical_formula_sum  Ca2Cu4O8
_cell_volume  155.84490054545745
_cell_formula_units_Z  2
loop_
  _symmetry_equiv_pos_site_id
 _symmetry_equiv_pos_as_xyz
 1  'x, y, z'
loop_
 _atom_site_type_symbol
 _atom_site_label
 _atom_site_symmetry_multiplicity
 _atom_site_fract_x
 _atom_site_fract_y
 _atom_site_fract_z
 _atom_site_fract_occupancy
 Ca  Ca1  1  0.75000  0.25000  0.50000  1
 Ca  Ca2  1  0.00000  0.00000  0.00000  1
 Cu  Cu1  1  0.87500  0.62500  0.25000  1
 Cu  Cu2  1  0.37500  0.62500  0.75000  1
 Cu  Cu3  1  0.37500  0.12500  0.75000  1
 Cu  Cu4  1  0.37500  0.62500  0.25000  1
 O  O1  1  0.02166  0.94333  0.36552  1
 O  O2  1  0.05667  0.42219  0.07834  1
 O  O3  1  0.34385  0.97834  0.92166  1
 O  O4  1  0.17219  0.59385  0.86552  1
 O  O5  1  0.40615  0.27166  0.57834  1
 O  O6  1  0.69333  0.82781  0.42166  1
 O  O7  1  0.57781  0.65615  0.63448  1
 O  O8  1  0.72834  0.30667  0.13448  1
