CIF file written using JARVIS-Tools package.
data_CaSnN
_symmetry_space_group_name_H-M  'Pmm2'
_cell_length_a       5.91984
_cell_length_b       6.97201
_cell_length_c       3.7972
_cell_angle_alpha    90
_cell_angle_beta     90
_cell_angle_gamma    147.96

_symmetry_Int_Tables_number  25
_chemical_formula_structural  CaSnN
_chemical_formula_sum  CaSnN
_cell_volume  83.14235905408795
_cell_formula_units_Z  1
loop_
  _symmetry_equiv_pos_site_id
 _symmetry_equiv_pos_as_xyz
 1  'x, y, z'
loop_
 _atom_site_type_symbol
 _atom_site_label
 _atom_site_symmetry_multiplicity
 _atom_site_fract_x
 _atom_site_fract_y
 _atom_site_fract_z
 _atom_site_fract_occupancy
 Ca  Ca1  1  0.00478  -0.25441  0.00000  1
 N  N1  1  0.30484  0.24648  0.00000  1
 Sn  Sn1  1  -0.02731  0.24636  0.00000  1
