CIF file written using JARVIS-Tools package.
data_Ca2YO3
_symmetry_space_group_name_H-M  'I4/mmm'
_cell_length_a       7.56846
_cell_length_b       3.38892
_cell_length_c       7.56799
_cell_angle_alpha    77.07
_cell_angle_beta     25.8754
_cell_angle_gamma    77.0546

_symmetry_Int_Tables_number  139
_chemical_formula_structural  Ca2YO3
_chemical_formula_sum  Ca2YO3
_cell_volume  82.44727766967043
_cell_formula_units_Z  1
loop_
  _symmetry_equiv_pos_site_id
 _symmetry_equiv_pos_as_xyz
 1  'x, y, z'
loop_
 _atom_site_type_symbol
 _atom_site_label
 _atom_site_symmetry_multiplicity
 _atom_site_fract_x
 _atom_site_fract_y
 _atom_site_fract_z
 _atom_site_fract_occupancy
 Ca  Ca1  1  0.90292  0.56676  0.43324  1
 Ca  Ca2  1  0.56676  0.90292  0.09708  1
 O  O1  1  0.39917  0.07052  0.92948  1
 O  O2  1  0.07052  0.39917  0.60083  1
 O  O3  1  0.73485  0.73485  0.26515  1
 Y  Y1  1  0.23487  0.23487  0.76513  1
