CIF file written using JARVIS-Tools package.
data_LiGaW2O8
_symmetry_space_group_name_H-M  'P2/c'
_cell_length_a       5.70009
_cell_length_b       4.93524
_cell_length_c       9.32103
_cell_angle_alpha    89.6679
_cell_angle_beta     90
_cell_angle_gamma    90

_symmetry_Int_Tables_number  13
_chemical_formula_structural  LiGaW2O8
_chemical_formula_sum  Li2Ga2W4O6
_cell_volume  262.20811736243667
_cell_formula_units_Z  2
loop_
  _symmetry_equiv_pos_site_id
 _symmetry_equiv_pos_as_xyz
 1  'x, y, z'
loop_
 _atom_site_type_symbol
 _atom_site_label
 _atom_site_symmetry_multiplicity
 _atom_site_fract_x
 _atom_site_fract_y
 _atom_site_fract_z
 _atom_site_fract_occupancy
 Ga  Ga1  1  0.33166  0.25000  0.00000  1
 Ga  Ga2  1  0.66834  0.75000  0.00000  1
 Li  Li1  1  0.34108  0.25000  0.50000  1
 Li  Li2  1  0.65892  0.75000  0.50000  1
 O  O1  1  0.38209  0.58985  0.88554  1
 O  O2  1  0.11754  0.07391  0.86896  1
 O  O3  1  0.11754  0.42609  0.13104  1
 O  O4  1  0.89848  0.93688  0.64940  1
 O  O5  1  0.88246  0.57391  0.86896  1
 O  O6  1  0.10152  0.43688  0.64940  1
 O  O7  1  0.88246  0.92609  0.13104  1
 O  O8  1  0.38209  0.91015  0.11446  1
 O  O9  1  0.61791  0.41015  0.11446  1
 O  O10  1  0.61987  0.10004  0.37369  1
 O  O11  1  0.61987  0.39996  0.62631  1
 O  O12  1  0.89848  0.56312  0.35060  1
 O  O13  1  0.38013  0.60004  0.37369  1
 O  O14  1  0.38013  0.89996  0.62631  1
 O  O15  1  0.61791  0.08985  0.88554  1
 O  O16  1  0.10152  0.06312  0.35060  1
 W  W1  1  0.81809  0.24491  0.25163  1
 W  W2  1  0.81809  0.25509  0.74837  1
 W  W3  1  0.18191  0.74491  0.25163  1
 W  W4  1  0.18191  0.75509  0.74837  1
