CIF file written using JARVIS-Tools package.
data_CSN
_symmetry_space_group_name_H-M  'P4mm'
_cell_length_a       2.96515
_cell_length_b       2.96515
_cell_length_c       5.74598
_cell_angle_alpha    90
_cell_angle_beta     90
_cell_angle_gamma    90

_symmetry_Int_Tables_number  99
_chemical_formula_structural  CSN
_chemical_formula_sum  CSN
_cell_volume  50.519424210660056
_cell_formula_units_Z  1
loop_
  _symmetry_equiv_pos_site_id
 _symmetry_equiv_pos_as_xyz
 1  'x, y, z'
loop_
 _atom_site_type_symbol
 _atom_site_label
 _atom_site_symmetry_multiplicity
 _atom_site_fract_x
 _atom_site_fract_y
 _atom_site_fract_z
 _atom_site_fract_occupancy
 C  C1  1  0.00000  0.00000  0.01433  1
 N  N1  1  0.00000  0.00000  0.21873  1
 S  S1  1  0.00000  0.00000  0.72703  1
