CIF file written using JARVIS-Tools package.
data_NaMnCrF6
_symmetry_space_group_name_H-M  'P321'
_cell_length_a       9.04478
_cell_length_b       9.04478
_cell_length_c       4.9293
_cell_angle_alpha    90
_cell_angle_beta     90
_cell_angle_gamma    120

_symmetry_Int_Tables_number  150
_chemical_formula_structural  NaMnCrF6
_chemical_formula_sum  Na3Mn3Cr3F8
_cell_volume  349.2301857982948
_cell_formula_units_Z  3
loop_
  _symmetry_equiv_pos_site_id
 _symmetry_equiv_pos_as_xyz
 1  'x, y, z'
loop_
 _atom_site_type_symbol
 _atom_site_label
 _atom_site_symmetry_multiplicity
 _atom_site_fract_x
 _atom_site_fract_y
 _atom_site_fract_z
 _atom_site_fract_occupancy
 Cr  Cr1  1  0.66667  0.33333  0.50250  1
 Cr  Cr2  1  0.00000  0.00000  0.00000  1
 Cr  Cr3  1  0.33333  0.66667  0.49750  1
 F  F1  1  0.79782  0.89671  0.22519  1
 F  F2  1  0.77399  0.23295  0.28905  1
 F  F3  1  0.76705  0.54105  0.28905  1
 F  F4  1  0.45895  0.22601  0.28905  1
 F  F5  1  0.54105  0.76705  0.71095  1
 F  F6  1  0.59114  0.13008  0.71736  1
 F  F7  1  0.23295  0.77399  0.71095  1
 F  F8  1  0.40886  0.53894  0.28264  1
 F  F9  1  0.22601  0.45895  0.71095  1
 F  F10  1  0.13008  0.59114  0.28264  1
 F  F11  1  0.89671  0.79782  0.77481  1
 F  F12  1  0.86992  0.46106  0.71736  1
 F  F13  1  0.46106  0.86992  0.28264  1
 F  F14  1  0.09889  0.20218  0.22519  1
 F  F15  1  0.10329  0.90111  0.22519  1
 F  F16  1  0.53894  0.40886  0.71736  1
 F  F17  1  0.90111  0.10329  0.77481  1
 F  F18  1  0.20218  0.09889  0.77481  1
 Mn  Mn1  1  -0.00000  0.69971  0.50000  1
 Mn  Mn2  1  0.30029  0.30029  0.50000  1
 Mn  Mn3  1  0.69971  -0.00000  0.50000  1
 Na  Na1  1  0.63231  0.63231  0.00000  1
 Na  Na2  1  -0.00000  0.36769  0.00000  1
 Na  Na3  1  0.36769  -0.00000  0.00000  1
