CIF file written using JARVIS-Tools package.
data_CdP2
_symmetry_space_group_name_H-M  'P1'
_cell_length_a       4.2978
_cell_length_b       5.7944
_cell_length_c       3.32888
_cell_angle_alpha    125.138
_cell_angle_beta     112.973
_cell_angle_gamma    73.4077

_symmetry_Int_Tables_number  1
_chemical_formula_structural  CdP2
_chemical_formula_sum  CdP2
_cell_volume  62.21142336652941
_cell_formula_units_Z  1
loop_
  _symmetry_equiv_pos_site_id
 _symmetry_equiv_pos_as_xyz
 1  'x, y, z'
loop_
 _atom_site_type_symbol
 _atom_site_label
 _atom_site_symmetry_multiplicity
 _atom_site_fract_x
 _atom_site_fract_y
 _atom_site_fract_z
 _atom_site_fract_occupancy
 Cd  Cd1  1  0.06615  0.21093  0.09590  1
 P  P1  1  0.60372  0.86201  0.01850  1
 P  P2  1  0.52862  0.55988  0.17806  1
