CIF file written using JARVIS-Tools package.
data_CaAsN
_symmetry_space_group_name_H-M  'Pm'
_cell_length_a       6.47713
_cell_length_b       6.47713
_cell_length_c       4.7626
_cell_angle_alpha    90
_cell_angle_beta     90
_cell_angle_gamma    90

_symmetry_Int_Tables_number  6
_chemical_formula_structural  CaAsN
_chemical_formula_sum  CaAsN
_cell_volume  199.80614362139755
_cell_formula_units_Z  1
loop_
  _symmetry_equiv_pos_site_id
 _symmetry_equiv_pos_as_xyz
 1  'x, y, z'
loop_
 _atom_site_type_symbol
 _atom_site_label
 _atom_site_symmetry_multiplicity
 _atom_site_fract_x
 _atom_site_fract_y
 _atom_site_fract_z
 _atom_site_fract_occupancy
 As  As1  1  -0.01459  -0.08075  0.00000  1
 Ca  Ca1  1  0.33741  0.00156  0.00000  1
 N  N1  1  0.00304  0.28690  0.00000  1
