CIF file written using JARVIS-Tools package.
data_VMoO5
_symmetry_space_group_name_H-M  'P4/n'
_cell_length_a       4.2902
_cell_length_b       6.62043
_cell_length_c       6.62043
_cell_angle_alpha    90
_cell_angle_beta     90
_cell_angle_gamma    90

_symmetry_Int_Tables_number  85
_chemical_formula_structural  VMoO5
_chemical_formula_sum  V2Mo2O0
_cell_volume  188.03969734865285
_cell_formula_units_Z  2
loop_
  _symmetry_equiv_pos_site_id
 _symmetry_equiv_pos_as_xyz
 1  'x, y, z'
loop_
 _atom_site_type_symbol
 _atom_site_label
 _atom_site_symmetry_multiplicity
 _atom_site_fract_x
 _atom_site_fract_y
 _atom_site_fract_z
 _atom_site_fract_occupancy
 Mo  Mo1  1  0.50000  0.25000  0.75000  1
 Mo  Mo2  1  0.50000  0.75000  0.25000  1
 O  O1  1  0.74251  0.22787  0.96755  1
 O  O2  1  0.74251  0.53245  0.22787  1
 O  O3  1  0.74251  0.96755  0.27213  1
 O  O4  1  0.74251  0.27213  0.53245  1
 O  O5  1  0.22145  0.25000  0.25000  1
 O  O6  1  0.77855  0.75000  0.75000  1
 O  O7  1  0.25749  0.72787  0.46755  1
 O  O8  1  0.25749  0.03245  0.72787  1
 O  O9  1  0.25749  0.46755  0.77213  1
 O  O10  1  0.25749  0.77213  0.03245  1
 V  V1  1  0.84168  0.25000  0.25000  1
 V  V2  1  0.15832  0.75000  0.75000  1
