CIF file written using JARVIS-Tools package.
data_CdP2
_symmetry_space_group_name_H-M  'Pmmm'
_cell_length_a       5.38477
_cell_length_b       5.12911
_cell_length_c       2.68438
_cell_angle_alpha    90
_cell_angle_beta     90
_cell_angle_gamma    90

_symmetry_Int_Tables_number  47
_chemical_formula_structural  CdP2
_chemical_formula_sum  CdP2
_cell_volume  74.14006774657258
_cell_formula_units_Z  1
loop_
  _symmetry_equiv_pos_site_id
 _symmetry_equiv_pos_as_xyz
 1  'x, y, z'
loop_
 _atom_site_type_symbol
 _atom_site_label
 _atom_site_symmetry_multiplicity
 _atom_site_fract_x
 _atom_site_fract_y
 _atom_site_fract_z
 _atom_site_fract_occupancy
 Cd  Cd1  1  0.00000  0.42398  0.00000  1
 P  P1  1  0.20788  0.92401  0.00000  1
 P  P2  1  0.79212  0.92401  0.00000  1
