CIF file written using JARVIS-Tools package.
data_VCuO4
_symmetry_space_group_name_H-M  'Imma'
_cell_length_a       5.63554
_cell_length_b       5.63521
_cell_length_c       5.63485
_cell_angle_alpha    119.517
_cell_angle_beta     113.645
_cell_angle_gamma    96.0955

_symmetry_Int_Tables_number  74
_chemical_formula_structural  VCuO4
_chemical_formula_sum  V2Cu2O8
_cell_volume  131.8850701958483
_cell_formula_units_Z  2
loop_
  _symmetry_equiv_pos_site_id
 _symmetry_equiv_pos_as_xyz
 1  'x, y, z'
loop_
 _atom_site_type_symbol
 _atom_site_label
 _atom_site_symmetry_multiplicity
 _atom_site_fract_x
 _atom_site_fract_y
 _atom_site_fract_z
 _atom_site_fract_occupancy
 Cu  Cu1  1  0.50000  0.50000  0.50000  1
 Cu  Cu2  1  0.50000  0.00001  -0.00000  1
 O  O1  1  0.32449  0.26844  0.05603  1
 O  O2  1  0.83029  0.83931  0.50924  1
 O  O3  1  0.16970  0.16069  0.49076  1
 O  O4  1  0.16975  0.67892  0.00902  1
 O  O5  1  0.28779  0.73173  0.55606  1
 O  O6  1  0.67551  0.73157  0.94397  1
 O  O7  1  0.83026  0.32110  0.99099  1
 O  O8  1  0.71221  0.26828  0.44394  1
 V  V1  1  0.03728  0.78729  0.24998  1
 V  V2  1  0.96272  0.21271  0.75001  1
