CIF file written using JARVIS-Tools package.
data_AsI5
_symmetry_space_group_name_H-M  'Pmm2'
_cell_length_a       6.36992
_cell_length_b       8.58071
_cell_length_c       8.57946
_cell_angle_alpha    90
_cell_angle_beta     90
_cell_angle_gamma    90

_symmetry_Int_Tables_number  25
_chemical_formula_structural  AsI5
_chemical_formula_sum  AsI5
_cell_volume  468.93988541654744
_cell_formula_units_Z  1
loop_
  _symmetry_equiv_pos_site_id
 _symmetry_equiv_pos_as_xyz
 1  'x, y, z'
loop_
 _atom_site_type_symbol
 _atom_site_label
 _atom_site_symmetry_multiplicity
 _atom_site_fract_x
 _atom_site_fract_y
 _atom_site_fract_z
 _atom_site_fract_occupancy
 As  As1  1  0.81828  0.00000  0.50000  1
 I  I1  1  0.73103  0.00000  0.17634  1
 I  I2  1  0.72165  0.67643  0.50000  1
 I  I3  1  0.72165  0.32357  0.50000  1
 I  I4  1  0.22058  0.00000  0.50000  1
 I  I5  1  0.73103  0.00000  0.82366  1
