CIF file written using JARVIS-Tools package.
data_FeP2O7
_symmetry_space_group_name_H-M  'P-1'
_cell_length_a       6.15915
_cell_length_b       6.08472
_cell_length_c       6.88704
_cell_angle_alpha    111.832
_cell_angle_beta     92.3229
_cell_angle_gamma    84.5005

_symmetry_Int_Tables_number  2
_chemical_formula_structural  FeP2O7
_chemical_formula_sum  Fe2P4O4
_cell_volume  238.48527467991713
_cell_formula_units_Z  2
loop_
  _symmetry_equiv_pos_site_id
 _symmetry_equiv_pos_as_xyz
 1  'x, y, z'
loop_
 _atom_site_type_symbol
 _atom_site_label
 _atom_site_symmetry_multiplicity
 _atom_site_fract_x
 _atom_site_fract_y
 _atom_site_fract_z
 _atom_site_fract_occupancy
 Fe  Fe1  1  0.64721  0.10065  0.21378  1
 Fe  Fe2  1  0.35279  0.89935  0.78622  1
 O  O1  1  0.61314  0.39940  0.20118  1
 O  O2  1  0.90646  0.55289  0.82226  1
 O  O3  1  0.09354  0.44711  0.17774  1
 O  O4  1  0.66409  0.79235  0.20721  1
 O  O5  1  0.18630  0.32270  0.49188  1
 O  O6  1  0.05393  0.91796  0.77864  1
 O  O7  1  0.33841  0.06247  0.13623  1
 O  O8  1  0.38686  0.60060  0.79882  1
 O  O9  1  0.81370  0.67730  0.50812  1
 O  O10  1  0.59076  0.23751  0.52036  1
 O  O11  1  0.94607  0.08204  0.22136  1
 O  O12  1  0.66159  0.93753  0.86377  1
 O  O13  1  0.33591  0.20765  0.79279  1
 O  O14  1  0.40924  0.76249  0.47964  1
 P  P1  1  0.86349  0.75699  0.75647  1
 P  P2  1  0.13651  0.24301  0.24353  1
 P  P3  1  0.61597  0.66213  0.35017  1
 P  P4  1  0.38403  0.33787  0.64983  1
