CIF file written using JARVIS-Tools package.
data_As2I
_symmetry_space_group_name_H-M  'P1'
_cell_length_a       3.93161
_cell_length_b       3.86283
_cell_length_c       6.92259
_cell_angle_alpha    73.6795
_cell_angle_beta     81.2612
_cell_angle_gamma    119.551

_symmetry_Int_Tables_number  1
_chemical_formula_structural  As2I
_chemical_formula_sum  As2I
_cell_volume  82.28675181571134
_cell_formula_units_Z  1
loop_
  _symmetry_equiv_pos_site_id
 _symmetry_equiv_pos_as_xyz
 1  'x, y, z'
loop_
 _atom_site_type_symbol
 _atom_site_label
 _atom_site_symmetry_multiplicity
 _atom_site_fract_x
 _atom_site_fract_y
 _atom_site_fract_z
 _atom_site_fract_occupancy
 As  As1  1  0.76744  0.17472  0.67718  1
 As  As2  1  0.23405  0.01589  0.46564  1
 I  I1  1  0.98596  0.07886  0.07538  1
