CIF file written using JARVIS-Tools package.
data_As2I
_symmetry_space_group_name_H-M  'Cmmm'
_cell_length_a       8.104
_cell_length_b       2.93647
_cell_length_c       3.76903
_cell_angle_alpha    90
_cell_angle_beta     103.394
_cell_angle_gamma    90

_symmetry_Int_Tables_number  65
_chemical_formula_structural  As2I
_chemical_formula_sum  As2I
_cell_volume  87.25259928329055
_cell_formula_units_Z  1
loop_
  _symmetry_equiv_pos_site_id
 _symmetry_equiv_pos_as_xyz
 1  'x, y, z'
loop_
 _atom_site_type_symbol
 _atom_site_label
 _atom_site_symmetry_multiplicity
 _atom_site_fract_x
 _atom_site_fract_y
 _atom_site_fract_z
 _atom_site_fract_occupancy
 As  As1  1  -0.14011  0.00000  -0.16980  1
 As  As2  1  0.07344  0.00000  0.43655  1
 I  I1  1  0.46668  0.00000  0.13325  1
