CIF file written using JARVIS-Tools package.
data_PdSCl
_symmetry_space_group_name_H-M  'Pmmn'
_cell_length_a       3.45953
_cell_length_b       5.16507
_cell_length_c       6.90088
_cell_angle_alpha    90
_cell_angle_beta     90
_cell_angle_gamma    90

_symmetry_Int_Tables_number  59
_chemical_formula_structural  PdSCl
_chemical_formula_sum  Pd2S2Cl2
_cell_volume  123.30991286823061
_cell_formula_units_Z  2
loop_
  _symmetry_equiv_pos_site_id
 _symmetry_equiv_pos_as_xyz
 1  'x, y, z'
loop_
 _atom_site_type_symbol
 _atom_site_label
 _atom_site_symmetry_multiplicity
 _atom_site_fract_x
 _atom_site_fract_y
 _atom_site_fract_z
 _atom_site_fract_occupancy
 Cl  Cl1  1  0.00000  0.00000  0.12509  1
 Cl  Cl2  1  0.50000  0.50000  0.87491  1
 Pd  Pd1  1  0.50000  0.00000  0.37036  1
 Pd  Pd2  1  0.00000  0.50000  0.62964  1
 S  S1  1  0.00000  0.00000  0.60167  1
 S  S2  1  0.50000  0.50000  0.39833  1
