CIF file written using JARVIS-Tools package.
data_Mn3Co2O8
_symmetry_space_group_name_H-M  'Pmn2_1'
_cell_length_a       4.87012
_cell_length_b       5.6915
_cell_length_c       9.15344
_cell_angle_alpha    90
_cell_angle_beta     90
_cell_angle_gamma    90

_symmetry_Int_Tables_number  31
_chemical_formula_structural  Mn3Co2O8
_chemical_formula_sum  Mn6Co4O6
_cell_volume  253.71806915666437
_cell_formula_units_Z  2
loop_
  _symmetry_equiv_pos_site_id
 _symmetry_equiv_pos_as_xyz
 1  'x, y, z'
loop_
 _atom_site_type_symbol
 _atom_site_label
 _atom_site_symmetry_multiplicity
 _atom_site_fract_x
 _atom_site_fract_y
 _atom_site_fract_z
 _atom_site_fract_occupancy
 Co  Co1  1  0.67987  0.00000  0.21202  1
 Co  Co2  1  0.32013  0.50000  0.71202  1
 Co  Co3  1  0.31903  0.50000  0.31082  1
 Co  Co4  1  0.68097  0.00000  0.81082  1
 Mn  Mn1  1  0.31239  0.00000  0.49780  1
 Mn  Mn2  1  0.17643  0.76181  0.00221  1
 Mn  Mn3  1  0.17643  0.23819  0.00221  1
 Mn  Mn4  1  0.82357  0.26181  0.50221  1
 Mn  Mn5  1  0.82357  0.73819  0.50221  1
 Mn  Mn6  1  0.68761  0.50000  0.99780  1
 O  O1  1  0.49859  0.27220  0.87285  1
 O  O2  1  0.85347  0.25868  0.11148  1
 O  O3  1  0.14653  0.24132  0.61148  1
 O  O4  1  0.97728  0.50000  0.38891  1
 O  O5  1  0.85347  0.74132  0.11148  1
 O  O6  1  0.50141  0.22780  0.37285  1
 O  O7  1  0.14653  0.75868  0.61148  1
 O  O8  1  0.97426  0.00000  0.38827  1
 O  O9  1  0.66471  0.50000  0.61145  1
 O  O10  1  0.35644  0.50000  0.10956  1
 O  O11  1  0.64356  0.00000  0.60956  1
 O  O12  1  0.49859  0.72780  0.87285  1
 O  O13  1  0.02574  0.50000  0.88827  1
 O  O14  1  0.33529  0.00000  0.11145  1
 O  O15  1  0.50141  0.77220  0.37285  1
 O  O16  1  0.02272  0.00000  0.88891  1
