CIF file written using JARVIS-Tools package.
data_CuI3
_symmetry_space_group_name_H-M  'P1'
_cell_length_a       6.00781
_cell_length_b       8.42308
_cell_length_c       4.12606
_cell_angle_alpha    122.857
_cell_angle_beta     106.851
_cell_angle_gamma    64.791

_symmetry_Int_Tables_number  1
_chemical_formula_structural  CuI3
_chemical_formula_sum  CuI3
_cell_volume  158.213862814657
_cell_formula_units_Z  1
loop_
  _symmetry_equiv_pos_site_id
 _symmetry_equiv_pos_as_xyz
 1  'x, y, z'
loop_
 _atom_site_type_symbol
 _atom_site_label
 _atom_site_symmetry_multiplicity
 _atom_site_fract_x
 _atom_site_fract_y
 _atom_site_fract_z
 _atom_site_fract_occupancy
 Cu  Cu1  1  0.06685  0.08756  0.60968  1
 I  I1  1  0.11394  0.86590  -0.11325  1
 I  I2  1  0.33332  0.33555  0.87792  1
 I  I3  1  0.77622  0.44654  0.97801  1
