CIF file written using JARVIS-Tools package.
data_AsI
_symmetry_space_group_name_H-M  'P1'
_cell_length_a       6.32755
_cell_length_b       15.9269
_cell_length_c       5.64639
_cell_angle_alpha    51.5383
_cell_angle_beta     69.4667
_cell_angle_gamma    23.9028

_symmetry_Int_Tables_number  1
_chemical_formula_structural  AsI
_chemical_formula_sum  As2I2
_cell_volume  131.2271483768704
_cell_formula_units_Z  2
loop_
  _symmetry_equiv_pos_site_id
 _symmetry_equiv_pos_as_xyz
 1  'x, y, z'
loop_
 _atom_site_type_symbol
 _atom_site_label
 _atom_site_symmetry_multiplicity
 _atom_site_fract_x
 _atom_site_fract_y
 _atom_site_fract_z
 _atom_site_fract_occupancy
 As  As1  1  0.35318  -0.09050  0.33681  1
 As  As2  1  0.06248  0.41115  -0.02233  1
 I  I1  1  0.92258  0.39203  0.64102  1
 I  I2  1  0.51173  0.89044  -0.15428  1
