CIF file written using JARVIS-Tools package.
data_Ca2C
_symmetry_space_group_name_H-M  'R-3m'
_cell_length_a       3.96333
_cell_length_b       3.9635
_cell_length_c       5.85376
_cell_angle_alpha    70.2036
_cell_angle_beta     90.0014
_cell_angle_gamma    119.998

_symmetry_Int_Tables_number  166
_chemical_formula_structural  Ca2C
_chemical_formula_sum  Ca2C
_cell_volume  73.29523314118437
_cell_formula_units_Z  1
loop_
  _symmetry_equiv_pos_site_id
 _symmetry_equiv_pos_as_xyz
 1  'x, y, z'
loop_
 _atom_site_type_symbol
 _atom_site_label
 _atom_site_symmetry_multiplicity
 _atom_site_fract_x
 _atom_site_fract_y
 _atom_site_fract_z
 _atom_site_fract_occupancy
 C  C1  1  0.94315  0.09847  0.00910  1
 Ca  Ca1  1  0.20658  0.62533  0.21876  1
 Ca  Ca2  1  0.67972  0.57165  0.79942  1
