CIF file written using JARVIS-Tools package.
data_Ni2Hg2OF6
_symmetry_space_group_name_H-M  'Fd-3m'
_cell_length_a       7.37982
_cell_length_b       7.37982
_cell_length_c       7.37982
_cell_angle_alpha    120
_cell_angle_beta     90
_cell_angle_gamma    120

_symmetry_Int_Tables_number  227
_chemical_formula_structural  Ni2Hg2OF6
_chemical_formula_sum  Ni4Hg4O2F2
_cell_volume  284.19881885684543
_cell_formula_units_Z  2
loop_
  _symmetry_equiv_pos_site_id
 _symmetry_equiv_pos_as_xyz
 1  'x, y, z'
loop_
 _atom_site_type_symbol
 _atom_site_label
 _atom_site_symmetry_multiplicity
 _atom_site_fract_x
 _atom_site_fract_y
 _atom_site_fract_z
 _atom_site_fract_occupancy
 F  F1  1  0.17773  0.85546  0.92773  1
 F  F2  1  0.42773  0.75000  0.07227  1
 F  F3  1  0.42773  0.75000  0.67773  1
 F  F4  1  0.82227  0.75000  0.07227  1
 F  F5  1  0.82227  0.75000  0.67773  1
 F  F6  1  0.57227  0.25000  0.92773  1
 F  F7  1  0.82227  0.14454  0.07227  1
 F  F8  1  0.57227  0.64454  0.32227  1
 F  F9  1  0.57227  0.25000  0.32227  1
 F  F10  1  0.17773  0.25000  0.92773  1
 F  F11  1  0.17773  0.25000  0.32227  1
 F  F12  1  0.42773  0.35546  0.67773  1
 Hg  Hg1  1  0.00000  0.00000  0.50000  1
 Hg  Hg2  1  -0.00000  0.50000  -0.00000  1
 Hg  Hg3  1  -0.00000  0.50000  0.50000  1
 Hg  Hg4  1  0.50000  0.00000  0.50000  1
 Ni  Ni1  1  0.50000  0.50000  -0.00000  1
 Ni  Ni2  1  0.00000  0.00000  0.00000  1
 Ni  Ni3  1  0.50000  0.00000  0.00000  1
 Ni  Ni4  1  0.50000  0.50000  0.50000  1
 O  O1  1  0.87500  0.25000  0.62500  1
 O  O2  1  0.12500  0.75000  0.37500  1
