CIF file written using JARVIS-Tools package.
data_Li4NF
_symmetry_space_group_name_H-M  'R-3m'
_cell_length_a       6.12383
_cell_length_b       6.12383
_cell_length_c       6.12383
_cell_angle_alpha    32.7141
_cell_angle_beta     32.7141
_cell_angle_gamma    32.7142

_symmetry_Int_Tables_number  166
_chemical_formula_structural  Li4NF
_chemical_formula_sum  Li4NF
_cell_volume  59.66549924775026
_cell_formula_units_Z  1
loop_
  _symmetry_equiv_pos_site_id
 _symmetry_equiv_pos_as_xyz
 1  'x, y, z'
loop_
 _atom_site_type_symbol
 _atom_site_label
 _atom_site_symmetry_multiplicity
 _atom_site_fract_x
 _atom_site_fract_y
 _atom_site_fract_z
 _atom_site_fract_occupancy
 F  F1  1  0.50000  0.50000  0.50000  1
 Li  Li1  1  0.89039  0.89039  0.89039  1
 Li  Li2  1  0.10961  0.10961  0.10961  1
 Li  Li3  1  0.64755  0.64755  0.64755  1
 Li  Li4  1  0.35245  0.35245  0.35245  1
 N  N1  1  0.00000  0.00000  0.00000  1
