CIF file written using JARVIS-Tools package.
data_AsI2
_symmetry_space_group_name_H-M  'P2/m'
_cell_length_a       3.82199
_cell_length_b       3.05543
_cell_length_c       10.6752
_cell_angle_alpha    90
_cell_angle_beta     60.6467
_cell_angle_gamma    90

_symmetry_Int_Tables_number  10
_chemical_formula_structural  AsI2
_chemical_formula_sum  AsI2
_cell_volume  108.65824685268328
_cell_formula_units_Z  1
loop_
  _symmetry_equiv_pos_site_id
 _symmetry_equiv_pos_as_xyz
 1  'x, y, z'
loop_
 _atom_site_type_symbol
 _atom_site_label
 _atom_site_symmetry_multiplicity
 _atom_site_fract_x
 _atom_site_fract_y
 _atom_site_fract_z
 _atom_site_fract_occupancy
 As  As1  1  0.46657  0.00000  0.13334  1
 I  I1  1  -0.07179  0.00000  -0.17430  1
 I  I2  1  0.00521  0.00000  0.44097  1
