CIF file written using JARVIS-Tools package.
data_AsI2
_symmetry_space_group_name_H-M  'Imm2'
_cell_length_a       5.63753
_cell_length_b       4.17699
_cell_length_c       7.58324
_cell_angle_alpha    74.0293
_cell_angle_beta     68.209
_cell_angle_gamma    42.237

_symmetry_Int_Tables_number  44
_chemical_formula_structural  AsI2
_chemical_formula_sum  AsI2
_cell_volume  111.45691349579903
_cell_formula_units_Z  1
loop_
  _symmetry_equiv_pos_site_id
 _symmetry_equiv_pos_as_xyz
 1  'x, y, z'
loop_
 _atom_site_type_symbol
 _atom_site_label
 _atom_site_symmetry_multiplicity
 _atom_site_fract_x
 _atom_site_fract_y
 _atom_site_fract_z
 _atom_site_fract_occupancy
 As  As1  1  0.22380  0.18355  0.91495  1
 I  I1  1  0.36920  0.59073  0.62555  1
 I  I2  1  0.07911  0.59142  0.20438  1
