CIF file written using JARVIS-Tools package.
data_AsI2
_symmetry_space_group_name_H-M  'Pmm2'
_cell_length_a       4.07872
_cell_length_b       3.78014
_cell_length_c       8.01936
_cell_angle_alpha    90
_cell_angle_beta     90
_cell_angle_gamma    90

_symmetry_Int_Tables_number  25
_chemical_formula_structural  AsI2
_chemical_formula_sum  AsI2
_cell_volume  123.64334032575826
_cell_formula_units_Z  1
loop_
  _symmetry_equiv_pos_site_id
 _symmetry_equiv_pos_as_xyz
 1  'x, y, z'
loop_
 _atom_site_type_symbol
 _atom_site_label
 _atom_site_symmetry_multiplicity
 _atom_site_fract_x
 _atom_site_fract_y
 _atom_site_fract_z
 _atom_site_fract_occupancy
 As  As1  1  0.41755  0.00000  0.00000  1
 I  I1  1  -0.00877  0.00000  0.74482  1
 I  I2  1  -0.00877  0.00000  0.25518  1
