CIF file written using JARVIS-Tools package.
data_AsI3
_symmetry_space_group_name_H-M  'P-62m'
_cell_length_a       7.64728
_cell_length_b       7.64728
_cell_length_c       3.18558
_cell_angle_alpha    90
_cell_angle_beta     90
_cell_angle_gamma    120

_symmetry_Int_Tables_number  189
_chemical_formula_structural  AsI3
_chemical_formula_sum  AsI3
_cell_volume  161.33648805662466
_cell_formula_units_Z  1
loop_
  _symmetry_equiv_pos_site_id
 _symmetry_equiv_pos_as_xyz
 1  'x, y, z'
loop_
 _atom_site_type_symbol
 _atom_site_label
 _atom_site_symmetry_multiplicity
 _atom_site_fract_x
 _atom_site_fract_y
 _atom_site_fract_z
 _atom_site_fract_occupancy
 As  As1  1  0.00000  0.00000  0.00000  1
 I  I1  1  0.37132  0.00000  0.00000  1
 I  I2  1  1.00000  0.37132  0.00000  1
 I  I3  1  0.62868  0.62868  0.00000  1
