CIF file written using JARVIS-Tools package.
data_CrAg2O4
_symmetry_space_group_name_H-M  'Pnma'
_cell_length_a       5.56888
_cell_length_b       6.95097
_cell_length_c       10.0143
_cell_angle_alpha    90
_cell_angle_beta     90
_cell_angle_gamma    90

_symmetry_Int_Tables_number  62
_chemical_formula_structural  CrAg2O4
_chemical_formula_sum  Cr4Ag8O6
_cell_volume  387.6427294797656
_cell_formula_units_Z  4
loop_
  _symmetry_equiv_pos_site_id
 _symmetry_equiv_pos_as_xyz
 1  'x, y, z'
loop_
 _atom_site_type_symbol
 _atom_site_label
 _atom_site_symmetry_multiplicity
 _atom_site_fract_x
 _atom_site_fract_y
 _atom_site_fract_z
 _atom_site_fract_occupancy
 Ag  Ag1  1  0.00000  0.50000  0.00000  1
 Ag  Ag2  1  0.00000  0.00000  0.00000  1
 Ag  Ag3  1  0.50000  0.50000  0.50000  1
 Ag  Ag4  1  0.50000  0.00000  0.50000  1
 Ag  Ag5  1  0.99257  0.75000  0.64036  1
 Ag  Ag6  1  0.49257  0.25000  0.85964  1
 Ag  Ag7  1  0.50743  0.75000  0.14036  1
 Ag  Ag8  1  0.00743  0.25000  0.35964  1
 Cr  Cr1  1  0.02504  0.75000  0.31781  1
 Cr  Cr2  1  0.97496  0.25000  0.68219  1
 Cr  Cr3  1  0.52504  0.25000  0.18219  1
 Cr  Cr4  1  0.47496  0.75000  0.81781  1
 O  O1  1  0.23079  0.25000  0.14992  1
 O  O2  1  0.08287  0.75000  0.15121  1
 O  O3  1  0.15118  0.94586  0.38585  1
 O  O4  1  0.91713  0.25000  0.84879  1
 O  O5  1  0.41713  0.75000  0.65121  1
 O  O6  1  0.73079  0.75000  0.35008  1
 O  O7  1  0.58287  0.25000  0.34879  1
 O  O8  1  0.34882  0.55414  0.88585  1
 O  O9  1  0.65118  0.44586  0.11415  1
 O  O10  1  0.84882  0.05414  0.61415  1
 O  O11  1  0.34882  0.94586  0.88585  1
 O  O12  1  0.84882  0.44586  0.61415  1
 O  O13  1  0.26921  0.25000  0.64992  1
 O  O14  1  0.15118  0.55414  0.38585  1
 O  O15  1  0.76921  0.75000  0.85008  1
 O  O16  1  0.65118  0.05414  0.11415  1
