CIF file written using JARVIS-Tools package.
data_Ag6Mo2ClO7F3
_symmetry_space_group_name_H-M  'P3m1'
_cell_length_a       7.45607
_cell_length_b       7.45606
_cell_length_c       5.9515
_cell_angle_alpha    90
_cell_angle_beta     90
_cell_angle_gamma    120

_symmetry_Int_Tables_number  156
_chemical_formula_structural  Ag6Mo2ClO7F3
_chemical_formula_sum  Ag6Mo2ClO7F3
_cell_volume  286.5342036334291
_cell_formula_units_Z  1
loop_
  _symmetry_equiv_pos_site_id
 _symmetry_equiv_pos_as_xyz
 1  'x, y, z'
loop_
 _atom_site_type_symbol
 _atom_site_label
 _atom_site_symmetry_multiplicity
 _atom_site_fract_x
 _atom_site_fract_y
 _atom_site_fract_z
 _atom_site_fract_occupancy
 Ag  Ag1  1  0.15606  0.84394  0.18337  1
 Ag  Ag2  1  0.82829  0.17171  0.73624  1
 Ag  Ag3  1  0.82829  0.65658  0.73624  1
 Ag  Ag4  1  0.15606  0.31211  0.18337  1
 Ag  Ag5  1  0.68789  0.84394  0.18337  1
 Ag  Ag6  1  0.34342  0.17171  0.73624  1
 Cl  Cl1  1  0.00000  0.00000  0.49420  1
 F  F1  1  0.45068  0.54932  0.43291  1
 F  F2  1  0.09863  0.54932  0.43291  1
 F  F3  1  0.45068  0.90137  0.43291  1
 Mo  Mo1  1  0.66667  0.33333  0.24832  1
 Mo  Mo2  1  0.33333  0.66667  0.67931  1
 O  O1  1  0.20937  0.41875  0.81109  1
 O  O2  1  0.41175  0.20587  0.13126  1
 O  O3  1  0.20937  0.79063  0.81109  1
 O  O4  1  0.58125  0.79063  0.81109  1
 O  O5  1  0.79413  0.20587  0.13126  1
 O  O6  1  0.66667  0.33333  0.55414  1
 O  O7  1  0.79413  0.58825  0.13126  1
