CIF file written using JARVIS-Tools package.
data_OF3
_symmetry_space_group_name_H-M  'P1'
_cell_length_a       4.47761
_cell_length_b       4.0595
_cell_length_c       3.21376
_cell_angle_alpha    106.272
_cell_angle_beta     95.9564
_cell_angle_gamma    106.177

_symmetry_Int_Tables_number  1
_chemical_formula_structural  OF3
_chemical_formula_sum  OF3
_cell_volume  52.797905261803436
_cell_formula_units_Z  1
loop_
  _symmetry_equiv_pos_site_id
 _symmetry_equiv_pos_as_xyz
 1  'x, y, z'
loop_
 _atom_site_type_symbol
 _atom_site_label
 _atom_site_symmetry_multiplicity
 _atom_site_fract_x
 _atom_site_fract_y
 _atom_site_fract_z
 _atom_site_fract_occupancy
 F  F1  1  0.75340  0.96358  0.35237  1
 F  F2  1  0.11641  0.69890  -0.00055  1
 F  F3  1  0.46720  0.33303  0.61959  1
 O  O1  1  0.47179  -0.02676  0.52076  1
