CIF file written using JARVIS-Tools package.
data_DyMoClO4
_symmetry_space_group_name_H-M  'C2/m'
_cell_length_a       6.26969
_cell_length_b       6.26969
_cell_length_c       6.83832
_cell_angle_alpha    75.9643
_cell_angle_beta     75.9642
_cell_angle_gamma    70.5471

_symmetry_Int_Tables_number  12
_chemical_formula_structural  DyMoClO4
_chemical_formula_sum  Dy2Mo2Cl2O8
_cell_volume  242.0202980493201
_cell_formula_units_Z  2
loop_
  _symmetry_equiv_pos_site_id
 _symmetry_equiv_pos_as_xyz
 1  'x, y, z'
loop_
 _atom_site_type_symbol
 _atom_site_label
 _atom_site_symmetry_multiplicity
 _atom_site_fract_x
 _atom_site_fract_y
 _atom_site_fract_z
 _atom_site_fract_occupancy
 Cl  Cl1  1  0.00909  0.00909  0.23870  1
 Cl  Cl2  1  0.99091  0.99091  0.76130  1
 Dy  Dy1  1  0.77838  0.77838  0.10880  1
 Dy  Dy2  1  0.22162  0.22162  0.89120  1
 Mo  Mo1  1  0.36255  0.36255  0.26971  1
 Mo  Mo2  1  0.63745  0.63745  0.73029  1
 O  O1  1  0.11031  0.49030  0.15347  1
 O  O2  1  0.49030  0.11031  0.15347  1
 O  O3  1  0.29451  0.29451  0.53614  1
 O  O4  1  0.50970  0.88969  0.84653  1
 O  O5  1  0.70549  0.70549  0.46386  1
 O  O6  1  0.88969  0.50970  0.84653  1
 O  O7  1  0.54224  0.54224  0.20182  1
 O  O8  1  0.45776  0.45776  0.79818  1
