CIF file written using JARVIS-Tools package.
data_Li2F
_symmetry_space_group_name_H-M  'P2/m'
_cell_length_a       2.70806
_cell_length_b       2.90631
_cell_length_c       4.96124
_cell_angle_alpha    90
_cell_angle_beta     95.3402
_cell_angle_gamma    90

_symmetry_Int_Tables_number  10
_chemical_formula_structural  Li2F
_chemical_formula_sum  Li2F
_cell_volume  38.87771080347718
_cell_formula_units_Z  1
loop_
  _symmetry_equiv_pos_site_id
 _symmetry_equiv_pos_as_xyz
 1  'x, y, z'
loop_
 _atom_site_type_symbol
 _atom_site_label
 _atom_site_symmetry_multiplicity
 _atom_site_fract_x
 _atom_site_fract_y
 _atom_site_fract_z
 _atom_site_fract_occupancy
 F  F1  1  0.46667  0.00000  0.13332  1
 Li  Li1  1  -0.08364  0.00000  -0.11491  1
 Li  Li2  1  0.01697  0.00000  0.38158  1
