CIF file written using JARVIS-Tools package.
data_LiFeMo2O8
_symmetry_space_group_name_H-M  'P-1'
_cell_length_a       6.61438
_cell_length_b       7.16957
_cell_length_c       6.9438
_cell_angle_alpha    90.5499
_cell_angle_beta     109.974
_cell_angle_gamma    106.238

_symmetry_Int_Tables_number  2
_chemical_formula_structural  LiFeMo2O8
_chemical_formula_sum  Li2Fe2Mo4O6
_cell_volume  295.1152752803174
_cell_formula_units_Z  2
loop_
  _symmetry_equiv_pos_site_id
 _symmetry_equiv_pos_as_xyz
 1  'x, y, z'
loop_
 _atom_site_type_symbol
 _atom_site_label
 _atom_site_symmetry_multiplicity
 _atom_site_fract_x
 _atom_site_fract_y
 _atom_site_fract_z
 _atom_site_fract_occupancy
 Fe  Fe1  1  0.40793  0.09626  0.32602  1
 Fe  Fe2  1  0.59207  0.90374  0.67398  1
 Li  Li1  1  0.77517  0.44701  0.27469  1
 Li  Li2  1  0.22483  0.55299  0.72531  1
 Mo  Mo1  1  0.82056  0.96400  0.22752  1
 Mo  Mo2  1  0.33481  0.57378  0.28541  1
 Mo  Mo3  1  0.17944  0.03600  0.77248  1
 Mo  Mo4  1  0.66519  0.42622  0.71459  1
 O  O1  1  0.58017  0.15414  0.61262  1
 O  O2  1  0.24022  0.03764  0.04105  1
 O  O3  1  0.70583  0.71771  0.25950  1
 O  O4  1  0.76024  0.42805  0.97693  1
 O  O5  1  0.41983  0.84586  0.38738  1
 O  O6  1  0.68414  0.13615  0.27935  1
 O  O7  1  0.87669  0.95054  0.63739  1
 O  O8  1  0.75978  0.96236  0.95895  1
 O  O9  1  0.23976  0.57195  0.02307  1
 O  O10  1  0.47093  0.37401  0.34219  1
 O  O11  1  0.52907  0.62599  0.65781  1
 O  O12  1  0.09741  0.48260  0.34859  1
 O  O13  1  0.12331  0.04946  0.36261  1
 O  O14  1  0.29417  0.28229  0.74050  1
 O  O15  1  0.90259  0.51740  0.65141  1
 O  O16  1  0.31586  0.86385  0.72065  1
