CIF file written using JARVIS-Tools package.
data_NaCrO2
_symmetry_space_group_name_H-M  'R-3m'
_cell_length_a       5.21061
_cell_length_b       5.5422
_cell_length_c       6.01667
_cell_angle_alpha    105.747
_cell_angle_beta     90
_cell_angle_gamma    80.9897

_symmetry_Int_Tables_number  166
_chemical_formula_structural  NaCrO2
_chemical_formula_sum  Na4Cr4O8
_cell_volume  165.00140832028947
_cell_formula_units_Z  4
loop_
  _symmetry_equiv_pos_site_id
 _symmetry_equiv_pos_as_xyz
 1  'x, y, z'
loop_
 _atom_site_type_symbol
 _atom_site_label
 _atom_site_symmetry_multiplicity
 _atom_site_fract_x
 _atom_site_fract_y
 _atom_site_fract_z
 _atom_site_fract_occupancy
 Cr  Cr1  1  0.75000  0.50000  0.87500  1
 Cr  Cr2  1  0.25000  0.50000  0.62500  1
 Cr  Cr3  1  0.75000  0.50000  0.37500  1
 Cr  Cr4  1  0.25000  0.50000  0.12500  1
 Na  Na1  1  0.50000  0.00000  0.75000  1
 Na  Na2  1  0.50000  0.00000  0.25000  1
 Na  Na3  1  0.00000  0.00000  0.50000  1
 Na  Na4  1  1.00000  1.00000  1.00000  1
 O  O1  1  0.11625  0.30241  0.82560  1
 O  O2  1  0.11625  0.30241  0.32560  1
 O  O3  1  0.61625  0.30241  0.57561  1
 O  O4  1  0.61625  0.30241  0.07561  1
 O  O5  1  0.38375  0.69759  0.92439  1
 O  O6  1  0.38375  0.69759  0.42439  1
 O  O7  1  0.88375  0.69759  0.67440  1
 O  O8  1  0.88375  0.69759  0.17440  1
