CIF file written using JARVIS-Tools package.
data_Ge2C
_symmetry_space_group_name_H-M  'Cm'
_cell_length_a       3.23602
_cell_length_b       3.23675
_cell_length_c       5.55995
_cell_angle_alpha    73.4684
_cell_angle_beta     73.7211
_cell_angle_gamma    59.985

_symmetry_Int_Tables_number  8
_chemical_formula_structural  Ge2C
_chemical_formula_sum  Ge2C
_cell_volume  47.669228085399695
_cell_formula_units_Z  1
loop_
  _symmetry_equiv_pos_site_id
 _symmetry_equiv_pos_as_xyz
 1  'x, y, z'
loop_
 _atom_site_type_symbol
 _atom_site_label
 _atom_site_symmetry_multiplicity
 _atom_site_fract_x
 _atom_site_fract_y
 _atom_site_fract_z
 _atom_site_fract_occupancy
 C  C1  1  0.86600  0.15991  0.93817  1
 Ge  Ge1  1  0.74071  0.03164  0.32556  1
 Ge  Ge2  1  0.23872  0.53471  0.81304  1
