CIF file written using JARVIS-Tools package.
data_GaPdI4
_symmetry_space_group_name_H-M  'I-4'
_cell_length_a       7.35038
_cell_length_b       7.35038
_cell_length_c       7.35038
_cell_angle_alpha    131.513
_cell_angle_beta     131.513
_cell_angle_gamma    70.9993

_symmetry_Int_Tables_number  82
_chemical_formula_structural  GaPdI4
_chemical_formula_sum  GaPdI4
_cell_volume  218.04573367316516
_cell_formula_units_Z  1
loop_
  _symmetry_equiv_pos_site_id
 _symmetry_equiv_pos_as_xyz
 1  'x, y, z'
loop_
 _atom_site_type_symbol
 _atom_site_label
 _atom_site_symmetry_multiplicity
 _atom_site_fract_x
 _atom_site_fract_y
 _atom_site_fract_z
 _atom_site_fract_occupancy
 Ga  Ga1  1  0.25000  0.75000  0.50000  1
 I  I1  1  0.64336  0.10982  0.00256  1
 I  I2  1  0.89018  0.89274  0.53353  1
 I  I3  1  0.35920  0.35664  0.46647  1
 I  I4  1  0.10726  0.64080  -0.00256  1
 Pd  Pd1  1  0.50000  0.50000  -0.00000  1
