CIF file written using JARVIS-Tools package.
data_CdCuO2
_symmetry_space_group_name_H-M  'R-3m'
_cell_length_a       6.15817
_cell_length_b       6.15817
_cell_length_c       6.15817
_cell_angle_alpha    32.3016
_cell_angle_beta     32.3016
_cell_angle_gamma    32.3015

_symmetry_Int_Tables_number  166
_chemical_formula_structural  CdCuO2
_chemical_formula_sum  CdCuO2
_cell_volume  59.28023661770527
_cell_formula_units_Z  1
loop_
  _symmetry_equiv_pos_site_id
 _symmetry_equiv_pos_as_xyz
 1  'x, y, z'
loop_
 _atom_site_type_symbol
 _atom_site_label
 _atom_site_symmetry_multiplicity
 _atom_site_fract_x
 _atom_site_fract_y
 _atom_site_fract_z
 _atom_site_fract_occupancy
 Cd  Cd1  1  0.50000  0.50000  0.50000  1
 Cu  Cu1  1  0.00000  0.00000  0.00000  1
 O  O1  1  0.89921  0.89921  0.89921  1
 O  O2  1  0.10079  0.10079  0.10079  1
