CIF file written using JARVIS-Tools package.
data_V6H4O13
_symmetry_space_group_name_H-M  'Cm'
_cell_length_a       6.3597
_cell_length_b       6.35969
_cell_length_c       10.3572
_cell_angle_alpha    79.708
_cell_angle_beta     100.292
_cell_angle_gamma    144.986

_symmetry_Int_Tables_number  8
_chemical_formula_structural  V6H4O13
_chemical_formula_sum  V6H4O3
_cell_volume  236.10259409374135
_cell_formula_units_Z  1
loop_
  _symmetry_equiv_pos_site_id
 _symmetry_equiv_pos_as_xyz
 1  'x, y, z'
loop_
 _atom_site_type_symbol
 _atom_site_label
 _atom_site_symmetry_multiplicity
 _atom_site_fract_x
 _atom_site_fract_y
 _atom_site_fract_z
 _atom_site_fract_occupancy
 H  H1  1  0.81965  0.18035  0.87685  1
 H  H2  1  0.92246  0.07754  0.49627  1
 H  H3  1  0.50743  0.49257  0.80467  1
 H  H4  1  0.58114  0.41886  0.19512  1
 O  O1  1  0.33372  0.66628  0.80274  1
 O  O2  1  0.81879  0.18121  0.97188  1
 O  O3  1  0.43356  0.56644  0.57922  1
 O  O4  1  0.12706  0.87294  0.61644  1
 O  O5  1  0.89411  0.10589  0.40013  1
 O  O6  1  0.76023  0.23977  0.59599  1
 O  O7  1  0.18596  0.81404  0.00119  1
 O  O8  1  0.50089  0.49911  0.00812  1
 O  O9  1  0.58866  0.41134  0.80441  1
 O  O10  1  0.56767  0.43233  0.41531  1
 O  O11  1  0.25125  0.74875  0.40369  1
 O  O12  1  0.66285  0.33715  0.19983  1
 O  O13  1  0.38236  0.61764  0.19434  1
 V  V1  1  0.71519  0.28481  0.38649  1
 V  V2  1  0.29182  0.70818  0.63701  1
 V  V3  1  0.41077  0.58923  0.36483  1
 V  V4  1  0.59153  0.40847  0.61547  1
 V  V5  1  0.35253  0.64747  0.01237  1
 V  V6  1  0.64446  0.35554  -0.00213  1
