CIF file written using JARVIS-Tools package.
data_Mn2CuO4
_symmetry_space_group_name_H-M  'Imma'
_cell_length_a       6.04972
_cell_length_b       5.73147
_cell_length_c       6.04972
_cell_angle_alpha    61.7254
_cell_angle_beta     56.9259
_cell_angle_gamma    61.7254

_symmetry_Int_Tables_number  74
_chemical_formula_structural  Mn2CuO4
_chemical_formula_sum  Mn4Cu2O8
_cell_volume  148.07752497888927
_cell_formula_units_Z  2
loop_
  _symmetry_equiv_pos_site_id
 _symmetry_equiv_pos_as_xyz
 1  'x, y, z'
loop_
 _atom_site_type_symbol
 _atom_site_label
 _atom_site_symmetry_multiplicity
 _atom_site_fract_x
 _atom_site_fract_y
 _atom_site_fract_z
 _atom_site_fract_occupancy
 Cu  Cu1  1  0.62500  0.12500  0.62500  1
 Cu  Cu2  1  0.62500  0.62500  0.62500  1
 Mn  Mn1  1  0.02153  0.97847  0.02153  1
 Mn  Mn2  1  0.22847  0.27153  0.22847  1
 Mn  Mn3  1  0.12500  0.62500  0.62500  1
 Mn  Mn4  1  0.62500  0.62500  0.12500  1
 O  O1  1  0.36454  0.40685  0.36454  1
 O  O2  1  0.35809  0.40793  0.82605  1
 O  O3  1  0.36454  0.86406  0.36454  1
 O  O4  1  0.42395  0.84207  0.89191  1
 O  O5  1  0.82605  0.40793  0.35809  1
 O  O6  1  0.89191  0.84207  0.42395  1
 O  O7  1  0.88546  0.38594  0.88546  1
 O  O8  1  0.88546  0.84315  0.88546  1
