CIF file written using JARVIS-Tools package.
data_Cd2In
_symmetry_space_group_name_H-M  'P6/mmm'
_cell_length_a       5.41535
_cell_length_b       3.09904
_cell_length_c       5.41533
_cell_angle_alpha    90
_cell_angle_beta     119.93
_cell_angle_gamma    90

_symmetry_Int_Tables_number  191
_chemical_formula_structural  Cd2In
_chemical_formula_sum  Cd2In
_cell_volume  78.76200992240776
_cell_formula_units_Z  1
loop_
  _symmetry_equiv_pos_site_id
 _symmetry_equiv_pos_as_xyz
 1  'x, y, z'
loop_
 _atom_site_type_symbol
 _atom_site_label
 _atom_site_symmetry_multiplicity
 _atom_site_fract_x
 _atom_site_fract_y
 _atom_site_fract_z
 _atom_site_fract_occupancy
 Cd  Cd1  1  -0.19999  0.00000  -0.20004  1
 Cd  Cd2  1  0.13334  0.00000  0.46670  1
 In  In1  1  0.46666  0.00000  0.13334  1
