CIF file written using JARVIS-Tools package.
data_LiCoSiO4
_symmetry_space_group_name_H-M  'P1'
_cell_length_a       5.03781
_cell_length_b       5.02978
_cell_length_c       8.52541
_cell_angle_alpha    77.0093
_cell_angle_beta     78.8776
_cell_angle_gamma    59.6668

_symmetry_Int_Tables_number  1
_chemical_formula_structural  LiCoSiO4
_chemical_formula_sum  Li2Co2Si2O8
_cell_volume  180.8695381643612
_cell_formula_units_Z  2
loop_
  _symmetry_equiv_pos_site_id
 _symmetry_equiv_pos_as_xyz
 1  'x, y, z'
loop_
 _atom_site_type_symbol
 _atom_site_label
 _atom_site_symmetry_multiplicity
 _atom_site_fract_x
 _atom_site_fract_y
 _atom_site_fract_z
 _atom_site_fract_occupancy
 Co  Co1  1  0.61695  0.68039  0.14426  1
 Co  Co2  1  0.40153  0.33970  0.63879  1
 Li  Li1  1  0.93081  0.07985  0.11851  1
 Li  Li2  1  0.09789  0.04196  0.63212  1
 O  O1  1  0.40991  -0.01776  0.77871  1
 O  O2  1  0.02252  0.69710  0.68262  1
 O  O3  1  0.79800  0.47914  0.96351  1
 O  O4  1  0.24254  0.66818  0.19849  1
 O  O5  1  0.70504  0.40954  0.67974  1
 O  O6  1  0.33475  0.22316  0.46593  1
 O  O7  1  0.92095  0.35223  0.27284  1
 O  O8  1  0.53496  0.06910  0.16920  1
 Si  Si1  1  0.72865  0.64578  0.77645  1
 Si  Si2  1  0.25549  0.33132  0.27765  1
