CIF file written using JARVIS-Tools package.
data_Li2CoNi3O8
_symmetry_space_group_name_H-M  'R-3m'
_cell_length_a       5.67467
_cell_length_b       5.67467
_cell_length_c       5.67467
_cell_angle_alpha    60.309
_cell_angle_beta     60.3089
_cell_angle_gamma    60.309

_symmetry_Int_Tables_number  166
_chemical_formula_structural  Li2CoNi3O8
_chemical_formula_sum  Li2CoNi3O8
_cell_volume  130.1168294642383
_cell_formula_units_Z  1
loop_
  _symmetry_equiv_pos_site_id
 _symmetry_equiv_pos_as_xyz
 1  'x, y, z'
loop_
 _atom_site_type_symbol
 _atom_site_label
 _atom_site_symmetry_multiplicity
 _atom_site_fract_x
 _atom_site_fract_y
 _atom_site_fract_z
 _atom_site_fract_occupancy
 Co  Co1  1  0.50000  0.50000  0.50000  1
 Li  Li1  1  0.87633  0.87633  0.87633  1
 Li  Li2  1  0.12367  0.12367  0.12367  1
 Ni  Ni1  1  0.50000  0.00000  0.50000  1
 Ni  Ni2  1  -0.00000  0.50000  0.50000  1
 Ni  Ni3  1  0.50000  0.50000  0.00000  1
 O  O1  1  0.29131  0.73492  0.73492  1
 O  O2  1  0.73492  0.29131  0.73492  1
 O  O3  1  0.26293  0.26293  0.26293  1
 O  O4  1  0.73492  0.73492  0.29131  1
 O  O5  1  0.26508  0.26508  0.70869  1
 O  O6  1  0.73707  0.73707  0.73707  1
 O  O7  1  0.26508  0.70869  0.26508  1
 O  O8  1  0.70869  0.26508  0.26508  1
