CIF file written using JARVIS-Tools package.
data_LiMnP3HO10
_symmetry_space_group_name_H-M  'C2'
_cell_length_a       6.18681
_cell_length_b       6.1868
_cell_length_c       6.44011
_cell_angle_alpha    71.4133
_cell_angle_beta     71.4134
_cell_angle_gamma    82.412

_symmetry_Int_Tables_number  5
_chemical_formula_structural  LiMnP3HO10
_chemical_formula_sum  LiMnP3HO0
_cell_volume  221.33432748665308
_cell_formula_units_Z  1
loop_
  _symmetry_equiv_pos_site_id
 _symmetry_equiv_pos_as_xyz
 1  'x, y, z'
loop_
 _atom_site_type_symbol
 _atom_site_label
 _atom_site_symmetry_multiplicity
 _atom_site_fract_x
 _atom_site_fract_y
 _atom_site_fract_z
 _atom_site_fract_occupancy
 H  H1  1  0.77073  0.22927  -0.00000  1
 Li  Li1  1  0.10469  -0.10469  0.50000  1
 Mn  Mn1  1  0.32129  0.67871  0.00000  1
 O  O1  1  0.64469  0.67240  0.93382  1
 O  O2  1  0.29992  0.99003  0.00068  1
 O  O3  1  0.38067  0.75777  0.62730  1
 O  O4  1  0.67401  0.59689  0.33864  1
 O  O5  1  0.69690  0.16504  0.87649  1
 O  O6  1  0.83496  0.30310  0.12351  1
 O  O7  1  0.40311  0.32599  0.66136  1
 O  O8  1  0.24223  0.61933  0.37270  1
 O  O9  1  0.00997  0.70008  -0.00068  1
 O  O10  1  0.32760  0.35531  0.06618  1
 P  P1  1  0.79821  0.55959  0.08764  1
 P  P2  1  0.41768  0.58232  0.50000  1
 P  P3  1  0.44041  0.20179  0.91236  1
