CIF file written using JARVIS-Tools package.
data_LiMnF5
_symmetry_space_group_name_H-M  'P-1'
_cell_length_a       5.16516
_cell_length_b       5.4707
_cell_length_c       7.00193
_cell_angle_alpha    74.322
_cell_angle_beta     95.2199
_cell_angle_gamma    63.8568

_symmetry_Int_Tables_number  2
_chemical_formula_structural  LiMnF5
_chemical_formula_sum  Li2Mn2F0
_cell_volume  165.87796627698546
_cell_formula_units_Z  2
loop_
  _symmetry_equiv_pos_site_id
 _symmetry_equiv_pos_as_xyz
 1  'x, y, z'
loop_
 _atom_site_type_symbol
 _atom_site_label
 _atom_site_symmetry_multiplicity
 _atom_site_fract_x
 _atom_site_fract_y
 _atom_site_fract_z
 _atom_site_fract_occupancy
 F  F1  1  0.13767  0.01072  0.25632  1
 F  F2  1  0.21666  0.16323  0.56240  1
 F  F3  1  0.02579  0.65366  0.12633  1
 F  F4  1  0.31316  0.64373  0.62965  1
 F  F5  1  0.61630  0.17420  0.01300  1
 F  F6  1  0.86233  0.98928  0.74368  1
 F  F7  1  0.38370  0.82580  0.98700  1
 F  F8  1  0.68684  0.35627  0.37035  1
 F  F9  1  0.97421  0.34634  0.87367  1
 F  F10  1  0.78334  0.83677  0.43760  1
 Li  Li1  1  0.31483  0.29744  0.76720  1
 Li  Li2  1  0.68517  0.70256  0.23280  1
 Mn  Mn1  1  -0.00000  -0.00000  0.50000  1
 Mn  Mn2  1  0.00000  0.00000  0.00000  1
