CIF file written using JARVIS-Tools package.
data_Li2V2F7
_symmetry_space_group_name_H-M  'C2/c'
_cell_length_a       4.98163
_cell_length_b       4.98163
_cell_length_c       10.085
_cell_angle_alpha    83.6933
_cell_angle_beta     83.6933
_cell_angle_gamma    82.5465

_symmetry_Int_Tables_number  15
_chemical_formula_structural  Li2V2F7
_chemical_formula_sum  Li4V4F4
_cell_volume  245.49525967967756
_cell_formula_units_Z  2
loop_
  _symmetry_equiv_pos_site_id
 _symmetry_equiv_pos_as_xyz
 1  'x, y, z'
loop_
 _atom_site_type_symbol
 _atom_site_label
 _atom_site_symmetry_multiplicity
 _atom_site_fract_x
 _atom_site_fract_y
 _atom_site_fract_z
 _atom_site_fract_occupancy
 F  F1  1  0.93128  0.06872  0.25000  1
 F  F2  1  0.49427  0.43768  0.37109  1
 F  F3  1  0.47264  0.02055  0.12434  1
 F  F4  1  0.52736  -0.02055  0.87566  1
 F  F5  1  0.40548  0.94538  0.37216  1
 F  F6  1  0.06872  0.93128  0.75000  1
 F  F7  1  0.56232  0.50573  0.12891  1
 F  F8  1  -0.02055  0.52736  0.37566  1
 F  F9  1  0.02055  0.47264  0.62434  1
 F  F10  1  0.05462  0.59452  0.12784  1
 F  F11  1  0.50573  0.56232  0.62891  1
 F  F12  1  0.59452  0.05462  0.62784  1
 F  F13  1  0.43768  0.49427  0.87109  1
 F  F14  1  0.94538  0.40548  0.87216  1
 Li  Li1  1  0.73889  0.33859  0.51199  1
 Li  Li2  1  0.66141  0.26111  0.98801  1
 Li  Li3  1  0.33859  0.73889  0.01199  1
 Li  Li4  1  0.26111  0.66141  0.48801  1
 V  V1  1  0.27632  0.24833  0.75437  1
 V  V2  1  0.75167  0.72368  0.74563  1
 V  V3  1  0.24833  0.27632  0.25437  1
 V  V4  1  0.72368  0.75167  0.24563  1
