CIF file written using JARVIS-Tools package.
data_InSbS
_symmetry_space_group_name_H-M  'Pmn2_1'
_cell_length_a       4.28072
_cell_length_b       5.60937
_cell_length_c       6.9846
_cell_angle_alpha    90
_cell_angle_beta     90
_cell_angle_gamma    90

_symmetry_Int_Tables_number  31
_chemical_formula_structural  InSbS
_chemical_formula_sum  In2Sb2S2
_cell_volume  167.71501879037763
_cell_formula_units_Z  2
loop_
  _symmetry_equiv_pos_site_id
 _symmetry_equiv_pos_as_xyz
 1  'x, y, z'
loop_
 _atom_site_type_symbol
 _atom_site_label
 _atom_site_symmetry_multiplicity
 _atom_site_fract_x
 _atom_site_fract_y
 _atom_site_fract_z
 _atom_site_fract_occupancy
 In  In1  1  0.00000  0.27152  0.00661  1
 In  In2  1  0.50000  0.72848  0.50661  1
 S  S1  1  0.50000  0.57189  0.10827  1
 S  S2  1  0.00000  0.42811  0.60827  1
 Sb  Sb1  1  0.00000  0.06834  0.39282  1
 Sb  Sb2  1  0.50000  0.93166  0.89282  1
