CIF file written using JARVIS-Tools package.
data_MgHCl
_symmetry_space_group_name_H-M  'Amm2'
_cell_length_a       5.84342
_cell_length_b       5.843
_cell_length_c       4.32628
_cell_angle_alpha    90
_cell_angle_beta     90
_cell_angle_gamma    148.277

_symmetry_Int_Tables_number  38
_chemical_formula_structural  MgHCl
_chemical_formula_sum  MgHCl
_cell_volume  77.66923808423435
_cell_formula_units_Z  1
loop_
  _symmetry_equiv_pos_site_id
 _symmetry_equiv_pos_as_xyz
 1  'x, y, z'
loop_
 _atom_site_type_symbol
 _atom_site_label
 _atom_site_symmetry_multiplicity
 _atom_site_fract_x
 _atom_site_fract_y
 _atom_site_fract_z
 _atom_site_fract_occupancy
 Cl  Cl1  1  0.30317  0.02963  0.00000  1
 H  H1  1  0.05256  0.28123  0.00000  1
 Mg  Mg1  1  0.64428  0.68915  0.00000  1
