CIF file written using JARVIS-Tools package.
data_LiV5O7F
_symmetry_space_group_name_H-M  'R3m'
_cell_length_a       5.8748
_cell_length_b       5.8748
_cell_length_c       5.8748
_cell_angle_alpha    61.3152
_cell_angle_beta     61.3152
_cell_angle_gamma    61.3152

_symmetry_Int_Tables_number  160
_chemical_formula_structural  LiV5O7F
_chemical_formula_sum  LiV5O7F
_cell_volume  147.61020010964356
_cell_formula_units_Z  1
loop_
  _symmetry_equiv_pos_site_id
 _symmetry_equiv_pos_as_xyz
 1  'x, y, z'
loop_
 _atom_site_type_symbol
 _atom_site_label
 _atom_site_symmetry_multiplicity
 _atom_site_fract_x
 _atom_site_fract_y
 _atom_site_fract_z
 _atom_site_fract_occupancy
 F  F1  1  0.37738  0.37738  0.37738  1
 Li  Li1  1  0.24130  0.24130  0.24130  1
 O  O1  1  0.84361  0.38056  0.38056  1
 O  O2  1  0.38056  0.38056  0.84361  1
 O  O3  1  0.38056  0.84361  0.38056  1
 O  O4  1  0.87279  0.87279  0.87279  1
 O  O5  1  0.86825  0.39402  0.86825  1
 O  O6  1  0.39402  0.86825  0.86825  1
 O  O7  1  0.86825  0.86825  0.39402  1
 V  V1  1  0.00829  0.00829  0.00829  1
 V  V2  1  0.62233  0.62233  0.62233  1
 V  V3  1  0.63561  0.12144  0.63561  1
 V  V4  1  0.12144  0.63561  0.63561  1
 V  V5  1  0.63561  0.63561  0.12144  1
