CIF file written using JARVIS-Tools package.
data_MgH2Cl
_symmetry_space_group_name_H-M  'I-4m2'
_cell_length_a       4.89291
_cell_length_b       4.89291
_cell_length_c       4.89291
_cell_angle_alpha    141.3
_cell_angle_beta     141.3
_cell_angle_gamma    55.884

_symmetry_Int_Tables_number  119
_chemical_formula_structural  MgH2Cl
_chemical_formula_sum  MgH2Cl
_cell_volume  45.442903157153424
_cell_formula_units_Z  1
loop_
  _symmetry_equiv_pos_site_id
 _symmetry_equiv_pos_as_xyz
 1  'x, y, z'
loop_
 _atom_site_type_symbol
 _atom_site_label
 _atom_site_symmetry_multiplicity
 _atom_site_fract_x
 _atom_site_fract_y
 _atom_site_fract_z
 _atom_site_fract_occupancy
 Cl  Cl1  1  0.75000  0.25000  0.50000  1
 H  H1  1  0.00000  0.00000  0.00000  1
 H  H2  1  0.25000  0.75000  0.50000  1
 Mg  Mg1  1  0.50000  0.50000  0.00000  1
