CIF file written using JARVIS-Tools package.
data_Li2Mn7F16
_symmetry_space_group_name_H-M  'R-3'
_cell_length_a       9.35947
_cell_length_b       9.35946
_cell_length_c       9.35947
_cell_angle_alpha    40.1343
_cell_angle_beta     40.1343
_cell_angle_gamma    40.1342

_symmetry_Int_Tables_number  148
_chemical_formula_structural  Li2Mn7F16
_chemical_formula_sum  Li2Mn7F6
_cell_volume  307.01409425811113
_cell_formula_units_Z  1
loop_
  _symmetry_equiv_pos_site_id
 _symmetry_equiv_pos_as_xyz
 1  'x, y, z'
loop_
 _atom_site_type_symbol
 _atom_site_label
 _atom_site_symmetry_multiplicity
 _atom_site_fract_x
 _atom_site_fract_y
 _atom_site_fract_z
 _atom_site_fract_occupancy
 F  F1  1  0.80947  -0.07386  0.37698  1
 F  F2  1  0.77921  0.77921  0.77921  1
 F  F3  1  -0.07386  0.37698  0.80947  1
 F  F4  1  0.17003  0.59927  0.82577  1
 F  F5  1  0.07386  0.62302  0.19053  1
 F  F6  1  0.62302  0.19053  0.07386  1
 F  F7  1  0.19053  0.07386  0.62302  1
 F  F8  1  0.40073  0.17423  0.82997  1
 F  F9  1  0.59698  0.59698  0.59698  1
 F  F10  1  0.40302  0.40302  0.40302  1
 F  F11  1  0.82577  0.17003  0.59927  1
 F  F12  1  0.17423  0.82997  0.40073  1
 F  F13  1  0.22079  0.22079  0.22079  1
 F  F14  1  0.59927  0.82577  0.17003  1
 F  F15  1  0.82997  0.40073  0.17423  1
 F  F16  1  0.37698  0.80947  -0.07386  1
 Li  Li1  1  0.32535  0.32535  0.32535  1
 Li  Li2  1  0.67465  0.67465  0.67465  1
 Mn  Mn1  1  0.88528  0.51766  0.26682  1
 Mn  Mn2  1  0.48234  0.73318  0.11472  1
 Mn  Mn3  1  0.73318  0.11472  0.48234  1
 Mn  Mn4  1  0.26682  0.88528  0.51766  1
 Mn  Mn5  1  0.51766  0.26682  0.88528  1
 Mn  Mn6  1  0.11472  0.48234  0.73318  1
 Mn  Mn7  1  0.00000  0.00000  0.00000  1
