CIF file written using JARVIS-Tools package.
data_Li2Au
_symmetry_space_group_name_H-M  'C2/m'
_cell_length_a       2.87158
_cell_length_b       4.76709
_cell_length_c       4.76903
_cell_angle_alpha    48.3341
_cell_angle_beta     107.348
_cell_angle_gamma    107.315

_symmetry_Int_Tables_number  12
_chemical_formula_structural  Li2Au
_chemical_formula_sum  Li2Au
_cell_volume  46.09604032235701
_cell_formula_units_Z  1
loop_
  _symmetry_equiv_pos_site_id
 _symmetry_equiv_pos_as_xyz
 1  'x, y, z'
loop_
 _atom_site_type_symbol
 _atom_site_label
 _atom_site_symmetry_multiplicity
 _atom_site_fract_x
 _atom_site_fract_y
 _atom_site_fract_z
 _atom_site_fract_occupancy
 Au  Au1  1  0.20981  -0.01313  0.08929  1
 Li  Li1  1  0.86804  0.64546  0.74798  1
 Li  Li2  1  0.55188  0.32825  0.43059  1
