CIF file written using JARVIS-Tools package.
data_Li2Ti4VO8
_symmetry_space_group_name_H-M  'C2/m'
_cell_length_a       5.89564
_cell_length_b       5.89564
_cell_length_c       5.872
_cell_angle_alpha    59.8112
_cell_angle_beta     59.8112
_cell_angle_gamma    59.2108

_symmetry_Int_Tables_number  12
_chemical_formula_structural  Li2Ti4VO8
_chemical_formula_sum  Li2Ti4VO8
_cell_volume  143.03569641670236
_cell_formula_units_Z  1
loop_
  _symmetry_equiv_pos_site_id
 _symmetry_equiv_pos_as_xyz
 1  'x, y, z'
loop_
 _atom_site_type_symbol
 _atom_site_label
 _atom_site_symmetry_multiplicity
 _atom_site_fract_x
 _atom_site_fract_y
 _atom_site_fract_z
 _atom_site_fract_occupancy
 Li  Li1  1  0.00000  0.50000  -0.00000  1
 Li  Li2  1  0.50000  -0.00000  0.00000  1
 O  O1  1  0.25190  0.74688  0.75264  1
 O  O2  1  0.74020  0.74020  0.74535  1
 O  O3  1  0.24981  0.24981  0.75766  1
 O  O4  1  0.74688  0.25190  0.75264  1
 O  O5  1  0.25312  0.74810  0.24736  1
 O  O6  1  0.75019  0.75019  0.24234  1
 O  O7  1  0.25980  0.25980  0.25465  1
 O  O8  1  0.74810  0.25312  0.24736  1
 Ti  Ti1  1  0.00000  0.00000  0.00000  1
 Ti  Ti2  1  0.50000  -0.00000  0.50000  1
 Ti  Ti3  1  0.00000  0.50000  0.50000  1
 Ti  Ti4  1  0.50000  0.50000  0.50000  1
 V  V1  1  0.50000  0.50000  -0.00000  1
