CIF file written using JARVIS-Tools package.
data_LiAu2
_symmetry_space_group_name_H-M  'Cmmm'
_cell_length_a       8.08393
_cell_length_b       2.73036
_cell_length_c       2.89466
_cell_angle_alpha    90
_cell_angle_beta     57.5475
_cell_angle_gamma    90

_symmetry_Int_Tables_number  65
_chemical_formula_structural  LiAu2
_chemical_formula_sum  LiAu2
_cell_volume  53.91353771980106
_cell_formula_units_Z  1
loop_
  _symmetry_equiv_pos_site_id
 _symmetry_equiv_pos_as_xyz
 1  'x, y, z'
loop_
 _atom_site_type_symbol
 _atom_site_label
 _atom_site_symmetry_multiplicity
 _atom_site_fract_x
 _atom_site_fract_y
 _atom_site_fract_z
 _atom_site_fract_occupancy
 Au  Au1  1  -0.23003  0.00000  0.04210  1
 Au  Au2  1  0.39382  0.00000  0.10659  1
 Li  Li1  1  0.08189  0.00000  0.07449  1
