CIF file written using JARVIS-Tools package.
data_H4NCl
_symmetry_space_group_name_H-M  'P-43m'
_cell_length_a       3.80531
_cell_length_b       3.80531
_cell_length_c       3.80531
_cell_angle_alpha    90
_cell_angle_beta     90
_cell_angle_gamma    90

_symmetry_Int_Tables_number  215
_chemical_formula_structural  H4NCl
_chemical_formula_sum  H4NCl
_cell_volume  55.102523726990306
_cell_formula_units_Z  1
loop_
  _symmetry_equiv_pos_site_id
 _symmetry_equiv_pos_as_xyz
 1  'x, y, z'
loop_
 _atom_site_type_symbol
 _atom_site_label
 _atom_site_symmetry_multiplicity
 _atom_site_fract_x
 _atom_site_fract_y
 _atom_site_fract_z
 _atom_site_fract_occupancy
 Cl  Cl1  1  0.50000  0.50000  0.50000  1
 H  H1  1  0.15800  0.15800  0.84200  1
 H  H2  1  0.15800  0.84200  0.15800  1
 H  H3  1  0.84200  0.15800  0.15800  1
 H  H4  1  0.84200  0.84200  0.84200  1
 N  N1  1  0.00000  0.00000  0.00000  1
