CIF file written using JARVIS-Tools package.
data_Li3Mn2Si2O8
_symmetry_space_group_name_H-M  'P1'
_cell_length_a       7.27152
_cell_length_b       7.99403
_cell_length_c       7.25999
_cell_angle_alpha    64.2911
_cell_angle_beta     94.2994
_cell_angle_gamma    66.3141

_symmetry_Int_Tables_number  1
_chemical_formula_structural  Li3Mn2Si2O8
_chemical_formula_sum  Li6Mn4Si4O6
_cell_volume  331.9428492968582
_cell_formula_units_Z  2
loop_
  _symmetry_equiv_pos_site_id
 _symmetry_equiv_pos_as_xyz
 1  'x, y, z'
loop_
 _atom_site_type_symbol
 _atom_site_label
 _atom_site_symmetry_multiplicity
 _atom_site_fract_x
 _atom_site_fract_y
 _atom_site_fract_z
 _atom_site_fract_occupancy
 Li  Li1  1  0.78343  0.25382  0.45100  1
 Li  Li2  1  0.28344  0.25382  0.95101  1
 Li  Li3  1  0.53419  0.75153  0.20566  1
 Li  Li4  1  0.03419  0.75153  0.70566  1
 Li  Li5  1  0.96148  0.74943  0.28913  1
 Li  Li6  1  0.46147  0.74944  0.78913  1
 Mn  Mn1  1  0.08262  0.00943  0.88908  1
 Mn  Mn2  1  0.40769  0.48950  0.59912  1
 Mn  Mn3  1  0.58262  0.00943  0.38908  1
 Mn  Mn4  1  0.90767  0.48950  0.09910  1
 O  O1  1  0.43680  0.29224  0.14901  1
 O  O2  1  0.65356  0.77677  0.96757  1
 O  O3  1  0.35943  0.97900  0.49898  1
 O  O4  1  0.25899  0.00023  0.12812  1
 O  O5  1  0.75899  0.00022  0.62813  1
 O  O6  1  0.95107  0.20488  0.26749  1
 O  O7  1  0.45108  0.20488  0.76749  1
 O  O8  1  0.85944  0.97899  0.99898  1
 O  O9  1  0.61896  0.51805  0.75028  1
 O  O10  1  0.11894  0.51805  0.25026  1
 O  O11  1  -0.00258  0.50135  0.83377  1
 O  O12  1  0.74667  0.72338  0.42845  1
 O  O13  1  0.24667  0.72339  0.92846  1
 O  O14  1  0.93679  0.29224  0.64902  1
 O  O15  1  0.49740  0.50135  0.33378  1
 O  O16  1  0.15357  0.77677  0.46757  1
 Si  Si1  1  0.17503  0.99443  0.33685  1
 Si  Si2  1  0.67503  0.99443  0.83685  1
 Si  Si3  1  0.32536  0.50603  0.16698  1
 Si  Si4  1  0.82537  0.50603  0.66697  1
