CIF file written using JARVIS-Tools package.
data_Li2Mn2OF6
_symmetry_space_group_name_H-M  'Cc'
_cell_length_a       5.14594
_cell_length_b       5.14593
_cell_length_c       10.8807
_cell_angle_alpha    79.3244
_cell_angle_beta     100.676
_cell_angle_gamma    79.2527

_symmetry_Int_Tables_number  9
_chemical_formula_structural  Li2Mn2OF6
_chemical_formula_sum  Li4Mn4O2F2
_cell_volume  270.8698141026287
_cell_formula_units_Z  2
loop_
  _symmetry_equiv_pos_site_id
 _symmetry_equiv_pos_as_xyz
 1  'x, y, z'
loop_
 _atom_site_type_symbol
 _atom_site_label
 _atom_site_symmetry_multiplicity
 _atom_site_fract_x
 _atom_site_fract_y
 _atom_site_fract_z
 _atom_site_fract_occupancy
 F  F1  1  0.85882  0.55470  0.34140  1
 F  F2  1  0.81922  0.64309  0.06284  1
 F  F3  1  0.83942  0.40441  0.57809  1
 F  F4  1  0.74838  0.64348  0.79385  1
 F  F5  1  0.33364  0.78084  0.15773  1
 F  F6  1  0.21916  0.66636  0.65773  1
 F  F7  1  0.44530  0.14118  0.84140  1
 F  F8  1  0.35692  0.18078  0.56284  1
 F  F9  1  0.01883  0.19185  0.94639  1
 F  F10  1  0.35652  0.25162  0.29385  1
 F  F11  1  0.80815  -0.01884  0.44639  1
 F  F12  1  0.59559  0.16059  0.07809  1
 Li  Li1  1  0.51525  0.89052  0.30188  1
 Li  Li2  1  0.10948  0.48475  0.80188  1
 Li  Li3  1  0.08910  0.56741  0.20939  1
 Li  Li4  1  0.43260  0.91091  0.70939  1
 Mn  Mn1  1  0.57984  0.32146  0.44028  1
 Mn  Mn2  1  0.41215  0.91435  0.99958  1
 Mn  Mn3  1  0.67854  0.42016  0.94028  1
 Mn  Mn4  1  0.08565  0.58784  0.49958  1
 O  O1  1  0.35199  0.65455  0.41856  1
 O  O2  1  0.34545  0.64801  0.91856  1
