CIF file written using JARVIS-Tools package.
data_RbTeAu
_symmetry_space_group_name_H-M  'Amm2'
_cell_length_a       6.65605
_cell_length_b       4.95741
_cell_length_c       4.8614
_cell_angle_alpha    90
_cell_angle_beta     90
_cell_angle_gamma    111.828

_symmetry_Int_Tables_number  38
_chemical_formula_structural  RbTeAu
_chemical_formula_sum  RbTeAu
_cell_volume  148.90943247147302
_cell_formula_units_Z  1
loop_
  _symmetry_equiv_pos_site_id
 _symmetry_equiv_pos_as_xyz
 1  'x, y, z'
loop_
 _atom_site_type_symbol
 _atom_site_label
 _atom_site_symmetry_multiplicity
 _atom_site_fract_x
 _atom_site_fract_y
 _atom_site_fract_z
 _atom_site_fract_occupancy
 Au  Au1  1  -0.11141  -0.17926  0.00000  1
 Rb  Rb1  1  0.45247  0.10223  0.00000  1
 Te  Te1  1  0.02944  0.39106  0.00000  1
