CIF file written using JARVIS-Tools package.
data_LiSe3
_symmetry_space_group_name_H-M  'P1'
_cell_length_a       4.42102
_cell_length_b       4.033
_cell_length_c       5.83919
_cell_angle_alpha    90.0431
_cell_angle_beta     81.7379
_cell_angle_gamma    117.238

_symmetry_Int_Tables_number  1
_chemical_formula_structural  LiSe3
_chemical_formula_sum  LiSe3
_cell_volume  91.35701917919744
_cell_formula_units_Z  1
loop_
  _symmetry_equiv_pos_site_id
 _symmetry_equiv_pos_as_xyz
 1  'x, y, z'
loop_
 _atom_site_type_symbol
 _atom_site_label
 _atom_site_symmetry_multiplicity
 _atom_site_fract_x
 _atom_site_fract_y
 _atom_site_fract_z
 _atom_site_fract_occupancy
 Li  Li1  1  0.27403  0.64068  0.65368  1
 Se  Se1  1  -0.03903  -0.02924  0.45347  1
 Se  Se2  1  0.27006  0.47714  0.15513  1
 Se  Se3  1  0.58319  0.28221  0.85926  1
