CIF file written using JARVIS-Tools package.
data_Li6Mn2OF11
_symmetry_space_group_name_H-M  'C2'
_cell_length_a       5.00218
_cell_length_b       5.42864
_cell_length_c       8.6857
_cell_angle_alpha    86.1215
_cell_angle_beta     73.2624
_cell_angle_gamma    117.444

_symmetry_Int_Tables_number  5
_chemical_formula_structural  Li6Mn2OF11
_chemical_formula_sum  Li6Mn2OF
_cell_volume  194.79771743355315
_cell_formula_units_Z  1
loop_
  _symmetry_equiv_pos_site_id
 _symmetry_equiv_pos_as_xyz
 1  'x, y, z'
loop_
 _atom_site_type_symbol
 _atom_site_label
 _atom_site_symmetry_multiplicity
 _atom_site_fract_x
 _atom_site_fract_y
 _atom_site_fract_z
 _atom_site_fract_occupancy
 F  F1  1  0.55330  0.11342  0.61401  1
 F  F2  1  0.94527  0.48075  0.27880  1
 F  F3  1  0.07638  0.55424  0.70558  1
 F  F4  1  0.55411  0.63606  0.13503  1
 F  F5  1  0.24353  0.26868  0.47027  1
 F  F6  1  0.07373  0.02496  0.21871  1
 F  F7  1  0.76757  0.72441  0.53038  1
 F  F8  1  0.72800  0.19524  0.04350  1
 F  F9  1  0.45360  0.37469  0.87455  1
 F  F10  1  0.95266  0.96670  0.76834  1
 F  F11  1  0.25454  0.78276  0.98072  1
 Li  Li1  1  0.63769  0.13225  0.81881  1
 Li  Li2  1  0.82456  0.61723  0.93025  1
 Li  Li3  1  0.86602  0.14517  0.41208  1
 Li  Li4  1  0.63311  0.60429  0.33697  1
 Li  Li5  1  0.36301  0.40745  0.68909  1
 Li  Li6  1  0.14489  0.34196  0.06005  1
 Mn  Mn1  1  0.33551  0.85189  0.18045  1
 Mn  Mn2  1  0.16423  0.89756  0.56861  1
 O  O1  1  0.41059  0.87472  0.37453  1
