CIF file written using JARVIS-Tools package.
data_Zn3Mo3O8
_symmetry_space_group_name_H-M  'C2/m'
_cell_length_a       6.42392
_cell_length_b       6.42392
_cell_length_c       6.43257
_cell_angle_alpha    52.5888
_cell_angle_beta     52.5888
_cell_angle_gamma    52.6087

_symmetry_Int_Tables_number  12
_chemical_formula_structural  Zn3Mo3O8
_chemical_formula_sum  Zn3Mo3O8
_cell_volume  155.08438431776776
_cell_formula_units_Z  1
loop_
  _symmetry_equiv_pos_site_id
 _symmetry_equiv_pos_as_xyz
 1  'x, y, z'
loop_
 _atom_site_type_symbol
 _atom_site_label
 _atom_site_symmetry_multiplicity
 _atom_site_fract_x
 _atom_site_fract_y
 _atom_site_fract_z
 _atom_site_fract_occupancy
 Mo  Mo1  1  -0.00000  -0.00000  0.50000  1
 Mo  Mo2  1  0.50000  -0.00000  0.00000  1
 Mo  Mo3  1  -0.00000  0.50000  0.00000  1
 O  O1  1  0.24842  0.24842  0.24876  1
 O  O2  1  0.75446  0.75446  0.22897  1
 O  O3  1  0.22781  0.75537  0.75643  1
 O  O4  1  0.75537  0.22781  0.75643  1
 O  O5  1  0.75158  0.75158  0.75124  1
 O  O6  1  0.24554  0.24554  0.77103  1
 O  O7  1  0.77219  0.24463  0.24357  1
 O  O8  1  0.24463  0.77219  0.24357  1
 Zn  Zn1  1  0.00000  0.00000  0.00000  1
 Zn  Zn2  1  0.36614  0.36614  0.36612  1
 Zn  Zn3  1  0.63386  0.63386  0.63388  1
