CIF file written using JARVIS-Tools package.
data_MnF3
_symmetry_space_group_name_H-M  'P-1'
_cell_length_a       3.83175
_cell_length_b       2.95401
_cell_length_c       4.97442
_cell_angle_alpha    66.3192
_cell_angle_beta     68.5417
_cell_angle_gamma    88.2014

_symmetry_Int_Tables_number  2
_chemical_formula_structural  MnF3
_chemical_formula_sum  MnF3
_cell_volume  47.547259549543426
_cell_formula_units_Z  1
loop_
  _symmetry_equiv_pos_site_id
 _symmetry_equiv_pos_as_xyz
 1  'x, y, z'
loop_
 _atom_site_type_symbol
 _atom_site_label
 _atom_site_symmetry_multiplicity
 _atom_site_fract_x
 _atom_site_fract_y
 _atom_site_fract_z
 _atom_site_fract_occupancy
 F  F1  1  0.91170  0.10093  0.89775  1
 F  F2  1  0.55399  -0.22538  0.59789  1
 F  F3  1  0.26934  0.42723  0.19758  1
 Mn  Mn1  1  0.41172  0.10090  0.89773  1
