CIF file written using JARVIS-Tools package.
data_Y2Hf2O7
_symmetry_space_group_name_H-M  'C2/m'
_cell_length_a       5.85177
_cell_length_b       5.85177
_cell_length_c       5.54392
_cell_angle_alpha    84.2619
_cell_angle_beta     84.262
_cell_angle_gamma    107.598

_symmetry_Int_Tables_number  12
_chemical_formula_structural  Y2Hf2O7
_chemical_formula_sum  Y2Hf2O7
_cell_volume  178.34564049785334
_cell_formula_units_Z  1
loop_
  _symmetry_equiv_pos_site_id
 _symmetry_equiv_pos_as_xyz
 1  'x, y, z'
loop_
 _atom_site_type_symbol
 _atom_site_label
 _atom_site_symmetry_multiplicity
 _atom_site_fract_x
 _atom_site_fract_y
 _atom_site_fract_z
 _atom_site_fract_occupancy
 Hf  Hf1  1  0.74260  0.74260  0.40158  1
 Hf  Hf2  1  0.25740  0.25740  0.59842  1
 O  O1  1  0.94123  0.59334  0.20285  1
 O  O2  1  0.59334  0.94123  0.20285  1
 O  O3  1  0.55841  0.55841  0.72992  1
 O  O4  1  0.00000  -0.00000  0.50000  1
 O  O5  1  0.44159  0.44159  0.27008  1
 O  O6  1  0.40666  0.05877  0.79715  1
 O  O7  1  0.05877  0.40666  0.79715  1
 Y  Y1  1  0.69194  0.30806  -0.00000  1
 Y  Y2  1  0.30806  0.69194  -0.00000  1
