CIF file written using JARVIS-Tools package.
data_TlBiF4
_symmetry_space_group_name_H-M  'I4_1/amd'
_cell_length_a       7.06187
_cell_length_b       7.06187
_cell_length_c       7.06187
_cell_angle_alpha    128.163
_cell_angle_beta     128.163
_cell_angle_gamma    76.3609

_symmetry_Int_Tables_number  141
_chemical_formula_structural  TlBiF4
_chemical_formula_sum  Tl2Bi2F8
_cell_volume  211.55472951902428
_cell_formula_units_Z  2
loop_
  _symmetry_equiv_pos_site_id
 _symmetry_equiv_pos_as_xyz
 1  'x, y, z'
loop_
 _atom_site_type_symbol
 _atom_site_label
 _atom_site_symmetry_multiplicity
 _atom_site_fract_x
 _atom_site_fract_y
 _atom_site_fract_z
 _atom_site_fract_occupancy
 Bi  Bi1  1  0.50000  0.50000  0.00000  1
 Bi  Bi2  1  0.25000  0.75000  0.50000  1
 F  F1  1  0.37500  0.42323  0.54823  1
 F  F2  1  0.87500  0.82677  0.45177  1
 F  F3  1  0.57677  0.12500  0.95177  1
 F  F4  1  0.87500  0.42323  0.04823  1
 F  F5  1  0.17323  0.62500  0.04823  1
 F  F6  1  0.37500  0.82677  0.95177  1
 F  F7  1  0.17323  0.12500  0.54823  1
 F  F8  1  0.57677  0.62500  0.45177  1
 Tl  Tl1  1  0.00000  0.00000  0.00000  1
 Tl  Tl2  1  0.75000  0.25000  0.50000  1
