CIF file written using JARVIS-Tools package.
data_HPbCl3
_symmetry_space_group_name_H-M  'R3m'
_cell_length_a       4.81539
_cell_length_b       4.81539
_cell_length_c       4.81539
_cell_angle_alpha    84.1036
_cell_angle_beta     84.1036
_cell_angle_gamma    84.1036

_symmetry_Int_Tables_number  160
_chemical_formula_structural  HPbCl3
_chemical_formula_sum  HPbCl3
_cell_volume  110.00049996214673
_cell_formula_units_Z  1
loop_
  _symmetry_equiv_pos_site_id
 _symmetry_equiv_pos_as_xyz
 1  'x, y, z'
loop_
 _atom_site_type_symbol
 _atom_site_label
 _atom_site_symmetry_multiplicity
 _atom_site_fract_x
 _atom_site_fract_y
 _atom_site_fract_z
 _atom_site_fract_occupancy
 Cl  Cl1  1  0.84331  0.84331  0.32516  1
 Cl  Cl2  1  0.84331  0.32515  0.84332  1
 Cl  Cl3  1  0.32515  0.84331  0.84332  1
 H  H1  1  0.98221  0.98221  0.98221  1
 Pb  Pb1  1  0.44576  0.44576  0.44576  1
