CIF file written using JARVIS-Tools package.
data_HPbCl
_symmetry_space_group_name_H-M  'P2_1/m'
_cell_length_a       5.83416
_cell_length_b       4.26673
_cell_length_c       5.89631
_cell_angle_alpha    90
_cell_angle_beta     109.974
_cell_angle_gamma    90

_symmetry_Int_Tables_number  11
_chemical_formula_structural  HPbCl
_chemical_formula_sum  H2Pb2Cl2
_cell_volume  137.94681820325104
_cell_formula_units_Z  2
loop_
  _symmetry_equiv_pos_site_id
 _symmetry_equiv_pos_as_xyz
 1  'x, y, z'
loop_
 _atom_site_type_symbol
 _atom_site_label
 _atom_site_symmetry_multiplicity
 _atom_site_fract_x
 _atom_site_fract_y
 _atom_site_fract_z
 _atom_site_fract_occupancy
 Cl  Cl1  1  0.19701  0.75000  0.79254  1
 Cl  Cl2  1  0.80300  0.25000  0.20746  1
 H  H1  1  0.54750  0.25000  0.62439  1
 H  H2  1  0.45250  0.75000  0.37561  1
 Pb  Pb1  1  0.66270  0.75000  0.75641  1
 Pb  Pb2  1  0.33730  0.25000  0.24359  1
