CIF file written using JARVIS-Tools package.
data_Li2MnCu3O8
_symmetry_space_group_name_H-M  'R-3m'
_cell_length_a       5.83675
_cell_length_b       5.83674
_cell_length_c       5.83675
_cell_angle_alpha    59.6998
_cell_angle_beta     59.6998
_cell_angle_gamma    59.6998

_symmetry_Int_Tables_number  166
_chemical_formula_structural  Li2MnCu3O8
_chemical_formula_sum  Li2MnCu3O8
_cell_volume  139.6451871001012
_cell_formula_units_Z  1
loop_
  _symmetry_equiv_pos_site_id
 _symmetry_equiv_pos_as_xyz
 1  'x, y, z'
loop_
 _atom_site_type_symbol
 _atom_site_label
 _atom_site_symmetry_multiplicity
 _atom_site_fract_x
 _atom_site_fract_y
 _atom_site_fract_z
 _atom_site_fract_occupancy
 Cu  Cu1  1  0.50000  -0.00000  0.50000  1
 Cu  Cu2  1  0.00000  0.50000  0.50000  1
 Cu  Cu3  1  0.50000  0.50000  -0.00000  1
 Li  Li1  1  0.13066  0.13066  0.13066  1
 Li  Li2  1  0.86934  0.86934  0.86934  1
 Mn  Mn1  1  0.50000  0.50000  0.50000  1
 O  O1  1  0.26787  0.26787  0.26787  1
 O  O2  1  0.27485  0.27485  0.71706  1
 O  O3  1  0.71706  0.27485  0.27485  1
 O  O4  1  0.27485  0.71706  0.27485  1
 O  O5  1  0.72515  0.28294  0.72515  1
 O  O6  1  0.28294  0.72515  0.72515  1
 O  O7  1  0.72515  0.72515  0.28294  1
 O  O8  1  0.73213  0.73213  0.73213  1
