CIF file written using JARVIS-Tools package.
data_Li4Cr3NiO8
_symmetry_space_group_name_H-M  'C2/m'
_cell_length_a       5.03413
_cell_length_b       5.83246
_cell_length_c       5.83244
_cell_angle_alpha    59.991
_cell_angle_beta     73.0845
_cell_angle_gamma    73.0847

_symmetry_Int_Tables_number  12
_chemical_formula_structural  Li4Cr3NiO8
_chemical_formula_sum  Li4Cr3NiO8
_cell_volume  139.67260908344093
_cell_formula_units_Z  1
loop_
  _symmetry_equiv_pos_site_id
 _symmetry_equiv_pos_as_xyz
 1  'x, y, z'
loop_
 _atom_site_type_symbol
 _atom_site_label
 _atom_site_symmetry_multiplicity
 _atom_site_fract_x
 _atom_site_fract_y
 _atom_site_fract_z
 _atom_site_fract_occupancy
 Cr  Cr1  1  0.50000  0.25000  0.25000  1
 Cr  Cr2  1  0.50000  0.25000  0.75000  1
 Cr  Cr3  1  0.50000  0.75000  0.25000  1
 Li  Li1  1  -0.00206  0.50247  0.50248  1
 Li  Li2  1  0.00206  0.99753  0.99753  1
 Li  Li3  1  0.00000  0.99220  0.50780  1
 Li  Li4  1  0.00000  0.50780  0.99220  1
 Ni  Ni1  1  0.50000  0.75000  0.75000  1
 O  O1  1  0.27050  0.61505  0.61505  1
 O  O2  1  0.72950  0.88495  0.88495  1
 O  O3  1  0.27356  0.12119  0.12119  1
 O  O4  1  0.72644  0.37881  0.37881  1
 O  O5  1  0.72674  0.36520  0.88560  1
 O  O6  1  0.72674  0.88560  0.36520  1
 O  O7  1  0.27327  0.13480  0.61440  1
 O  O8  1  0.27327  0.61440  0.13480  1
