CIF file written using JARVIS-Tools package.
data_PdNCl4
_symmetry_space_group_name_H-M  'I4/m'
_cell_length_a       5.94796
_cell_length_b       5.94796
_cell_length_c       5.94796
_cell_angle_alpha    96.4257
_cell_angle_beta     96.4257
_cell_angle_gamma    140.911

_symmetry_Int_Tables_number  87
_chemical_formula_structural  PdNCl4
_chemical_formula_sum  PdNCl4
_cell_volume  125.03498081869301
_cell_formula_units_Z  1
loop_
  _symmetry_equiv_pos_site_id
 _symmetry_equiv_pos_as_xyz
 1  'x, y, z'
loop_
 _atom_site_type_symbol
 _atom_site_label
 _atom_site_symmetry_multiplicity
 _atom_site_fract_x
 _atom_site_fract_y
 _atom_site_fract_z
 _atom_site_fract_occupancy
 Cl  Cl1  1  0.22769  0.02458  0.36725  1
 Cl  Cl2  1  0.86044  0.22769  0.20311  1
 Cl  Cl3  1  0.02458  0.65733  0.79689  1
 Cl  Cl4  1  0.65733  0.86044  0.63275  1
 N  N1  1  0.44254  0.44254  0.00000  1
 Pd  Pd1  1  -0.05749  -0.05749  -0.00000  1
