CIF file written using JARVIS-Tools package.
data_NaPbO
_symmetry_space_group_name_H-M  'P4/nmm'
_cell_length_a       4.47936
_cell_length_b       4.47936
_cell_length_c       6.43414
_cell_angle_alpha    90
_cell_angle_beta     90
_cell_angle_gamma    90

_symmetry_Int_Tables_number  129
_chemical_formula_structural  NaPbO
_chemical_formula_sum  Na2Pb2O2
_cell_volume  129.09876391298937
_cell_formula_units_Z  2
loop_
  _symmetry_equiv_pos_site_id
 _symmetry_equiv_pos_as_xyz
 1  'x, y, z'
loop_
 _atom_site_type_symbol
 _atom_site_label
 _atom_site_symmetry_multiplicity
 _atom_site_fract_x
 _atom_site_fract_y
 _atom_site_fract_z
 _atom_site_fract_occupancy
 Na  Na1  1  0.00000  0.00000  0.00000  1
 Na  Na2  1  0.50000  0.50000  0.00000  1
 O  O1  1  0.00000  0.50000  0.87984  1
 O  O2  1  0.50000  0.00000  0.12016  1
 Pb  Pb1  1  0.00000  0.50000  0.55077  1
 Pb  Pb2  1  0.50000  0.00000  0.44923  1
