CIF file written using JARVIS-Tools package.
data_NaPbO
_symmetry_space_group_name_H-M  'Pm'
_cell_length_a       3.72549
_cell_length_b       7.01402
_cell_length_c       3.44594
_cell_angle_alpha    90
_cell_angle_beta     90
_cell_angle_gamma    58.419

_symmetry_Int_Tables_number  6
_chemical_formula_structural  NaPbO
_chemical_formula_sum  NaPbO
_cell_volume  76.70927137627474
_cell_formula_units_Z  1
loop_
  _symmetry_equiv_pos_site_id
 _symmetry_equiv_pos_as_xyz
 1  'x, y, z'
loop_
 _atom_site_type_symbol
 _atom_site_label
 _atom_site_symmetry_multiplicity
 _atom_site_fract_x
 _atom_site_fract_y
 _atom_site_fract_z
 _atom_site_fract_occupancy
 Na  Na1  1  -0.01714  -0.11281  0.00000  1
 O  O1  1  0.31010  0.06236  0.00000  1
 Pb  Pb1  1  -0.03102  0.40544  0.00000  1
