CIF file written using JARVIS-Tools package.
data_Fe10O9F11
_symmetry_space_group_name_H-M  'Pm'
_cell_length_a       15.0348
_cell_length_b       4.68769
_cell_length_c       4.67474
_cell_angle_alpha    86.0695
_cell_angle_beta     90
_cell_angle_gamma    90

_symmetry_Int_Tables_number  6
_chemical_formula_structural  Fe10O9F11
_chemical_formula_sum  Fe0O9F
_cell_volume  328.69211746236357
_cell_formula_units_Z  1
loop_
  _symmetry_equiv_pos_site_id
 _symmetry_equiv_pos_as_xyz
 1  'x, y, z'
loop_
 _atom_site_type_symbol
 _atom_site_label
 _atom_site_symmetry_multiplicity
 _atom_site_fract_x
 _atom_site_fract_y
 _atom_site_fract_z
 _atom_site_fract_occupancy
 F  F1  1  0.10277  0.20062  0.21933  1
 F  F2  1  0.70113  0.19195  0.18861  1
 F  F3  1  0.89723  0.20062  0.21933  1
 F  F4  1  0.50000  0.21133  0.18703  1
 F  F5  1  0.20546  0.29490  0.71261  1
 F  F6  1  0.00000  0.29816  0.72181  1
 F  F7  1  0.79454  0.29490  0.71261  1
 F  F8  1  0.30101  0.80535  0.79824  1
 F  F9  1  0.69899  0.80535  0.79824  1
 F  F10  1  0.50000  0.81040  0.78313  1
 F  F11  1  0.29887  0.19195  0.18861  1
 Fe  Fe1  1  0.40260  0.01158  0.98546  1
 Fe  Fe2  1  0.10443  0.53712  0.50915  1
 Fe  Fe3  1  0.59740  0.01158  0.98546  1
 Fe  Fe4  1  0.80610  0.95734  0.01288  1
 Fe  Fe5  1  0.00000  0.94939  0.99094  1
 Fe  Fe6  1  0.19390  0.95734  0.01288  1
 Fe  Fe7  1  0.50000  0.50661  0.48953  1
 Fe  Fe8  1  0.89557  0.53712  0.50915  1
 Fe  Fe9  1  0.31103  0.51137  0.47656  1
 Fe  Fe10  1  0.68897  0.51137  0.47656  1
 O  O1  1  0.20679  0.68879  0.31350  1
 O  O2  1  0.89763  0.80002  0.81662  1
 O  O3  1  0.10237  0.80002  0.81662  1
 O  O4  1  0.40593  0.70727  0.28556  1
 O  O5  1  0.59407  0.70727  0.28556  1
 O  O6  1  0.59620  0.30896  0.68560  1
 O  O7  1  0.00000  0.69360  0.31937  1
 O  O8  1  0.40380  0.30896  0.68560  1
 O  O9  1  0.79321  0.68879  0.31350  1
