CIF file written using JARVIS-Tools package.
data_Er2Al
_symmetry_space_group_name_H-M  'Pnma'
_cell_length_a       5.01757
_cell_length_b       6.46009
_cell_length_c       9.32825
_cell_angle_alpha    90
_cell_angle_beta     90
_cell_angle_gamma    90

_symmetry_Int_Tables_number  62
_chemical_formula_structural  Er2Al
_chemical_formula_sum  Er8Al4
_cell_volume  302.3659933478003
_cell_formula_units_Z  4
loop_
  _symmetry_equiv_pos_site_id
 _symmetry_equiv_pos_as_xyz
 1  'x, y, z'
loop_
 _atom_site_type_symbol
 _atom_site_label
 _atom_site_symmetry_multiplicity
 _atom_site_fract_x
 _atom_site_fract_y
 _atom_site_fract_z
 _atom_site_fract_occupancy
 Al  Al1  1  0.25000  0.29169  0.89675  1
 Al  Al2  1  0.25000  0.79169  0.60325  1
 Al  Al3  1  0.75000  0.70831  0.10325  1
 Al  Al4  1  0.75000  0.20831  0.39675  1
 Er  Er1  1  0.25000  0.81317  0.92785  1
 Er  Er2  1  0.25000  0.31317  0.57215  1
 Er  Er3  1  0.75000  0.18683  0.07215  1
 Er  Er4  1  0.75000  0.68683  0.42785  1
 Er  Er5  1  0.25000  0.97185  0.28931  1
 Er  Er6  1  0.25000  0.47185  0.21069  1
 Er  Er7  1  0.75000  0.02815  0.71069  1
 Er  Er8  1  0.75000  0.52815  0.78931  1
