CIF file written using JARVIS-Tools package.
data_NbF3
_symmetry_space_group_name_H-M  'Amm2'
_cell_length_a       7.02432
_cell_length_b       4.08887
_cell_length_c       5.76943
_cell_angle_alpha    122.198
_cell_angle_beta     135.478
_cell_angle_gamma    98.2743

_symmetry_Int_Tables_number  38
_chemical_formula_structural  NbF3
_chemical_formula_sum  NbF3
_cell_volume  46.17999257597854
_cell_formula_units_Z  1
loop_
  _symmetry_equiv_pos_site_id
 _symmetry_equiv_pos_as_xyz
 1  'x, y, z'
loop_
 _atom_site_type_symbol
 _atom_site_label
 _atom_site_symmetry_multiplicity
 _atom_site_fract_x
 _atom_site_fract_y
 _atom_site_fract_z
 _atom_site_fract_occupancy
 F  F1  1  0.70029  0.45137  0.02198  1
 F  F2  1  0.63947  -0.00066  0.39938  1
 F  F3  1  0.03033  0.17336  0.18212  1
 Nb  Nb1  1  0.51345  0.26466  0.14744  1
