CIF file written using JARVIS-Tools package.
data_LiCoNiO4
_symmetry_space_group_name_H-M  'Imma'
_cell_length_a       5.66967
_cell_length_b       5.66966
_cell_length_c       5.66966
_cell_angle_alpha    119.697
_cell_angle_beta     120.11
_cell_angle_gamma    90.1672

_symmetry_Int_Tables_number  74
_chemical_formula_structural  LiCoNiO4
_chemical_formula_sum  Li2Co2Ni2O8
_cell_volume  129.0561757838608
_cell_formula_units_Z  2
loop_
  _symmetry_equiv_pos_site_id
 _symmetry_equiv_pos_as_xyz
 1  'x, y, z'
loop_
 _atom_site_type_symbol
 _atom_site_label
 _atom_site_symmetry_multiplicity
 _atom_site_fract_x
 _atom_site_fract_y
 _atom_site_fract_z
 _atom_site_fract_occupancy
 Co  Co1  1  0.00000  0.50000  0.50000  1
 Co  Co2  1  0.50000  0.50000  -0.00000  1
 Li  Li1  1  0.12888  0.87888  0.25000  1
 Li  Li2  1  0.87112  0.12112  0.75000  1
 Ni  Ni1  1  0.50000  0.50000  0.50000  1
 Ni  Ni2  1  0.50000  -0.00000  0.00000  1
 O  O1  1  0.26352  0.29233  0.52882  1
 O  O2  1  0.26331  0.73650  0.52681  1
 O  O3  1  0.70969  0.73650  0.97319  1
 O  O4  1  0.26352  0.73470  0.97118  1
 O  O5  1  0.73648  0.26530  0.02882  1
 O  O6  1  0.73669  0.26350  0.47319  1
 O  O7  1  0.29031  0.26350  0.02681  1
 O  O8  1  0.73648  0.70767  0.47118  1
