CIF file written using JARVIS-Tools package.
data_TmTc2
_symmetry_space_group_name_H-M  'P6_3/mmc'
_cell_length_a       5.32824
_cell_length_b       5.32824
_cell_length_c       8.78452
_cell_angle_alpha    90
_cell_angle_beta     90
_cell_angle_gamma    120

_symmetry_Int_Tables_number  194
_chemical_formula_structural  TmTc2
_chemical_formula_sum  Tm4Tc8
_cell_volume  215.98119684590804
_cell_formula_units_Z  4
loop_
  _symmetry_equiv_pos_site_id
 _symmetry_equiv_pos_as_xyz
 1  'x, y, z'
loop_
 _atom_site_type_symbol
 _atom_site_label
 _atom_site_symmetry_multiplicity
 _atom_site_fract_x
 _atom_site_fract_y
 _atom_site_fract_z
 _atom_site_fract_occupancy
 Tc  Tc1  1  0.00000  0.00000  0.50000  1
 Tc  Tc2  1  0.00000  0.00000  0.00000  1
 Tc  Tc3  1  0.82834  0.17166  0.25000  1
 Tc  Tc4  1  0.82834  0.65668  0.25000  1
 Tc  Tc5  1  0.34332  0.17166  0.25000  1
 Tc  Tc6  1  0.17166  0.82834  0.75000  1
 Tc  Tc7  1  0.17166  0.34332  0.75000  1
 Tc  Tc8  1  0.65668  0.82834  0.75000  1
 Tm  Tm1  1  0.33333  0.66667  0.43718  1
 Tm  Tm2  1  0.66667  0.33333  0.56282  1
 Tm  Tm3  1  0.66667  0.33333  0.93718  1
 Tm  Tm4  1  0.33333  0.66667  0.06282  1
