CIF file written using JARVIS-Tools package.
data_Fe6O11F
_symmetry_space_group_name_H-M  'Amm2'
_cell_length_a       9.78246
_cell_length_b       6.08313
_cell_length_c       2.85125
_cell_angle_alpha    90
_cell_angle_beta     90
_cell_angle_gamma    71.8849

_symmetry_Int_Tables_number  38
_chemical_formula_structural  Fe6O11F
_chemical_formula_sum  Fe6OF
_cell_volume  161.2623763271802
_cell_formula_units_Z  1
loop_
  _symmetry_equiv_pos_site_id
 _symmetry_equiv_pos_as_xyz
 1  'x, y, z'
loop_
 _atom_site_type_symbol
 _atom_site_label
 _atom_site_symmetry_multiplicity
 _atom_site_fract_x
 _atom_site_fract_y
 _atom_site_fract_z
 _atom_site_fract_occupancy
 F  F1  1  0.86927  0.06536  0.50000  1
 Fe  Fe1  1  0.66754  0.66620  0.00000  1
 Fe  Fe2  1  0.33969  0.83017  0.50000  1
 Fe  Fe3  1  0.01643  0.99179  0.00000  1
 Fe  Fe4  1  0.32834  0.33585  0.00000  1
 Fe  Fe5  1  0.99731  0.50135  0.50000  1
 Fe  Fe6  1  0.64886  0.17554  0.50000  1
 O  O1  1  0.79729  0.60133  0.50000  1
 O  O2  1  0.53830  0.73083  0.50000  1
 O  O3  1  0.45858  0.27073  0.50000  1
 O  O4  1  0.33542  0.63603  0.00000  1
 O  O5  1  0.13727  0.93137  0.50000  1
 O  O6  1  0.00016  0.69993  0.00000  1
 O  O7  1  0.19924  0.40041  0.50000  1
 O  O8  1  0.66535  0.97257  0.00000  1
 O  O9  1  0.33543  0.02859  0.00000  1
 O  O10  1  0.00017  0.29991  0.00000  1
 O  O11  1  0.66536  0.36203  0.00000  1
