CIF file written using JARVIS-Tools package.
data_YAsS
_symmetry_space_group_name_H-M  'Pnma'
_cell_length_a       3.83589
_cell_length_b       3.86073
_cell_length_c       16.9777
_cell_angle_alpha    90
_cell_angle_beta     90
_cell_angle_gamma    90

_symmetry_Int_Tables_number  62
_chemical_formula_structural  YAsS
_chemical_formula_sum  Y4As4S4
_cell_volume  251.428630166566
_cell_formula_units_Z  4
loop_
  _symmetry_equiv_pos_site_id
 _symmetry_equiv_pos_as_xyz
 1  'x, y, z'
loop_
 _atom_site_type_symbol
 _atom_site_label
 _atom_site_symmetry_multiplicity
 _atom_site_fract_x
 _atom_site_fract_y
 _atom_site_fract_z
 _atom_site_fract_occupancy
 As  As1  1  0.75000  0.77888  0.49872  1
 As  As2  1  0.75000  0.72112  0.99872  1
 As  As3  1  0.25000  0.22112  0.50128  1
 As  As4  1  0.25000  0.27888  0.00128  1
 S  S1  1  0.25000  0.76057  0.31303  1
 S  S2  1  0.25000  0.73943  0.81303  1
 S  S3  1  0.75000  0.23943  0.68697  1
 S  S4  1  0.75000  0.26057  0.18697  1
 Y  Y1  1  0.25000  0.76285  0.14615  1
 Y  Y2  1  0.25000  0.73715  0.64615  1
 Y  Y3  1  0.75000  0.23715  0.85385  1
 Y  Y4  1  0.75000  0.26285  0.35385  1
