CIF file written using JARVIS-Tools package.
data_DyAsPt
_symmetry_space_group_name_H-M  'P6_3/mmc'
_cell_length_a       4.31097
_cell_length_b       4.31097
_cell_length_c       15.164
_cell_angle_alpha    90
_cell_angle_beta     90
_cell_angle_gamma    120

_symmetry_Int_Tables_number  194
_chemical_formula_structural  DyAsPt
_chemical_formula_sum  Dy4As4Pt4
_cell_volume  244.05967098206455
_cell_formula_units_Z  4
loop_
  _symmetry_equiv_pos_site_id
 _symmetry_equiv_pos_as_xyz
 1  'x, y, z'
loop_
 _atom_site_type_symbol
 _atom_site_label
 _atom_site_symmetry_multiplicity
 _atom_site_fract_x
 _atom_site_fract_y
 _atom_site_fract_z
 _atom_site_fract_occupancy
 As  As1  1  0.33333  0.66667  0.88543  1
 As  As2  1  0.66667  0.33333  0.11457  1
 As  As3  1  0.66667  0.33333  0.38543  1
 As  As4  1  0.33333  0.66667  0.61457  1
 Dy  Dy1  1  0.00000  0.00000  0.50000  1
 Dy  Dy2  1  0.00000  0.00000  0.00000  1
 Dy  Dy3  1  0.00000  0.00000  0.25000  1
 Dy  Dy4  1  0.00000  0.00000  0.75000  1
 Pt  Pt1  1  0.33333  0.66667  0.36264  1
 Pt  Pt2  1  0.66667  0.33333  0.63736  1
 Pt  Pt3  1  0.66667  0.33333  0.86264  1
 Pt  Pt4  1  0.33333  0.66667  0.13736  1
