CIF file written using JARVIS-Tools package.
data_VGeO3
_symmetry_space_group_name_H-M  'C2/c'
_cell_length_a       4.9851
_cell_length_b       7.24224
_cell_length_c       7.24028
_cell_angle_alpha    108.204
_cell_angle_beta     90.6728
_cell_angle_gamma    89.3247

_symmetry_Int_Tables_number  15
_chemical_formula_structural  VGeO3
_chemical_formula_sum  V4Ge4O2
_cell_volume  248.28878741245677
_cell_formula_units_Z  4
loop_
  _symmetry_equiv_pos_site_id
 _symmetry_equiv_pos_as_xyz
 1  'x, y, z'
loop_
 _atom_site_type_symbol
 _atom_site_label
 _atom_site_symmetry_multiplicity
 _atom_site_fract_x
 _atom_site_fract_y
 _atom_site_fract_z
 _atom_site_fract_occupancy
 Ge  Ge1  1  0.75269  0.20627  0.57837  1
 Ge  Ge2  1  0.25259  0.42194  0.79392  1
 Ge  Ge3  1  0.74741  0.57806  0.20608  1
 Ge  Ge4  1  0.24730  0.79373  0.42163  1
 O  O1  1  0.92670  0.15907  0.33296  1
 O  O2  1  0.57951  -0.00697  0.82300  1
 O  O3  1  0.57332  0.33282  0.15925  1
 O  O4  1  0.92053  0.82302  -0.00702  1
 O  O5  1  0.42050  0.00697  0.17701  1
 O  O6  1  0.07947  0.17698  0.00702  1
 O  O7  1  0.40282  0.31136  0.52288  1
 O  O8  1  0.07330  0.84093  0.66704  1
 O  O9  1  0.09713  0.52265  0.31146  1
 O  O10  1  0.90287  0.47735  0.68853  1
 O  O11  1  0.42668  0.66718  0.84075  1
 O  O12  1  0.59718  0.68864  0.47712  1
 V  V1  1  0.75000  0.07650  0.07661  1
 V  V2  1  0.75002  0.72825  0.72816  1
 V  V3  1  0.25000  0.92350  0.92340  1
 V  V4  1  0.24998  0.27175  0.27184  1
