CIF file written using JARVIS-Tools package.
data_VO2
_symmetry_space_group_name_H-M  'P4_2/mnm'
_cell_length_a       4.57489
_cell_length_b       5.38708
_cell_length_c       5.38691
_cell_angle_alpha    63.7529
_cell_angle_beta     90
_cell_angle_gamma    90

_symmetry_Int_Tables_number  136
_chemical_formula_structural  VO2
_chemical_formula_sum  V4O8
_cell_volume  119.07346436043612
_cell_formula_units_Z  4
loop_
  _symmetry_equiv_pos_site_id
 _symmetry_equiv_pos_as_xyz
 1  'x, y, z'
loop_
 _atom_site_type_symbol
 _atom_site_label
 _atom_site_symmetry_multiplicity
 _atom_site_fract_x
 _atom_site_fract_y
 _atom_site_fract_z
 _atom_site_fract_occupancy
 O  O1  1  0.29952  0.39977  0.89973  1
 O  O2  1  0.79952  0.10023  0.10027  1
 O  O3  1  0.70048  0.60023  0.10027  1
 O  O4  1  0.20048  0.89977  0.89973  1
 O  O5  1  0.79948  0.60030  0.60026  1
 O  O6  1  0.29948  0.89970  0.39974  1
 O  O7  1  0.20052  0.39970  0.39974  1
 O  O8  1  0.70052  0.10030  0.60026  1
 V  V1  1  0.49993  0.75011  0.74997  1
 V  V2  1  -0.00007  0.74989  0.25003  1
 V  V3  1  0.50007  0.24989  0.25003  1
 V  V4  1  0.00007  0.25011  0.74997  1
