CIF file written using JARVIS-Tools package.
data_Yb3Ga9Pt2
_symmetry_space_group_name_H-M  'Immm'
_cell_length_a       8.15442
_cell_length_b       8.15442
_cell_length_c       8.15442
_cell_angle_alpha    149.792
_cell_angle_beta     106.948
_cell_angle_gamma    81.0419

_symmetry_Int_Tables_number  71
_chemical_formula_structural  Yb3Ga9Pt2
_chemical_formula_sum  Yb3Ga9Pt2
_cell_volume  255.69753478649815
_cell_formula_units_Z  1
loop_
  _symmetry_equiv_pos_site_id
 _symmetry_equiv_pos_as_xyz
 1  'x, y, z'
loop_
 _atom_site_type_symbol
 _atom_site_label
 _atom_site_symmetry_multiplicity
 _atom_site_fract_x
 _atom_site_fract_y
 _atom_site_fract_z
 _atom_site_fract_occupancy
 Ga  Ga1  1  0.64349  0.36316  0.28033  1
 Ga  Ga2  1  0.35651  0.63684  0.71967  1
 Ga  Ga3  1  0.08282  0.36316  0.71967  1
 Ga  Ga4  1  0.91718  0.63684  0.28033  1
 Ga  Ga5  1  0.52903  0.15962  0.36941  1
 Ga  Ga6  1  0.47097  0.84038  0.63059  1
 Ga  Ga7  1  0.79021  0.15962  0.63059  1
 Ga  Ga8  1  0.20979  0.84038  0.36941  1
 Ga  Ga9  1  -0.00000  0.50000  0.50000  1
 Pt  Pt1  1  0.19094  0.00000  0.19094  1
 Pt  Pt2  1  0.80906  -0.00000  0.80906  1
 Yb  Yb1  1  0.50000  0.50000  -0.00000  1
 Yb  Yb2  1  0.19584  0.19584  -0.00000  1
 Yb  Yb3  1  0.80416  0.80416  0.00000  1
