CIF file written using JARVIS-Tools package.
data_ClO3
_symmetry_space_group_name_H-M  'P1'
_cell_length_a       6.23368
_cell_length_b       5.23689
_cell_length_c       2.58957
_cell_angle_alpha    114.162
_cell_angle_beta     97.1278
_cell_angle_gamma    117.517

_symmetry_Int_Tables_number  1
_chemical_formula_structural  ClO3
_chemical_formula_sum  ClO3
_cell_volume  63.073443479540984
_cell_formula_units_Z  1
loop_
  _symmetry_equiv_pos_site_id
 _symmetry_equiv_pos_as_xyz
 1  'x, y, z'
loop_
 _atom_site_type_symbol
 _atom_site_label
 _atom_site_symmetry_multiplicity
 _atom_site_fract_x
 _atom_site_fract_y
 _atom_site_fract_z
 _atom_site_fract_occupancy
 Cl  Cl1  1  0.90600  -0.00271  -0.02938  1
 O  O1  1  0.56751  0.26214  0.77042  1
 O  O2  1  0.37304  0.70213  0.20266  1
 O  O3  1  0.35933  0.95698  0.52135  1
