CIF file written using JARVIS-Tools package.
data_Ca2FeOsO6
_symmetry_space_group_name_H-M  'P2_1/c'
_cell_length_a       5.57179
_cell_length_b       5.37208
_cell_length_c       9.36397
_cell_angle_alpha    55.067
_cell_angle_beta     90
_cell_angle_gamma    90

_symmetry_Int_Tables_number  14
_chemical_formula_structural  Ca2FeOsO6
_chemical_formula_sum  Ca4Fe2Os2O2
_cell_volume  229.78294054185548
_cell_formula_units_Z  2
loop_
  _symmetry_equiv_pos_site_id
 _symmetry_equiv_pos_as_xyz
 1  'x, y, z'
loop_
 _atom_site_type_symbol
 _atom_site_label
 _atom_site_symmetry_multiplicity
 _atom_site_fract_x
 _atom_site_fract_y
 _atom_site_fract_z
 _atom_site_fract_occupancy
 Ca  Ca1  1  0.44235  0.76527  0.74915  1
 Ca  Ca2  1  0.05765  0.76527  0.24915  1
 Ca  Ca3  1  0.55765  0.23473  0.25085  1
 Ca  Ca4  1  0.94235  0.23473  0.75085  1
 Fe  Fe1  1  0.00000  0.00000  0.50000  1
 Fe  Fe2  1  0.50000  0.00000  0.00000  1
 O  O1  1  0.69928  0.15468  0.54820  1
 O  O2  1  0.47218  0.65253  0.25263  1
 O  O3  1  0.30072  0.84532  0.45180  1
 O  O4  1  0.19928  0.84532  0.95180  1
 O  O5  1  0.80072  0.15468  0.04820  1
 O  O6  1  0.79431  0.74312  0.45044  1
 O  O7  1  0.52782  0.34747  0.74737  1
 O  O8  1  0.20569  0.25688  0.54956  1
 O  O9  1  0.70569  0.74312  0.95044  1
 O  O10  1  0.97218  0.34747  0.24737  1
 O  O11  1  0.29431  0.25688  0.04956  1
 O  O12  1  0.02782  0.65253  0.75263  1
 Os  Os1  1  0.00000  0.50000  -0.00000  1
 Os  Os2  1  0.50000  0.50000  0.50000  1
