CIF file written using JARVIS-Tools package.
data_Li4AlCr3O8
_symmetry_space_group_name_H-M  'C2/m'
_cell_length_a       5.03308
_cell_length_b       5.81896
_cell_length_c       5.81151
_cell_angle_alpha    119.958
_cell_angle_beta     89.9999
_cell_angle_gamma    73.2381

_symmetry_Int_Tables_number  12
_chemical_formula_structural  Li4AlCr3O8
_chemical_formula_sum  Li4AlCr3O8
_cell_volume  139.05361731106987
_cell_formula_units_Z  1
loop_
  _symmetry_equiv_pos_site_id
 _symmetry_equiv_pos_as_xyz
 1  'x, y, z'
loop_
 _atom_site_type_symbol
 _atom_site_label
 _atom_site_symmetry_multiplicity
 _atom_site_fract_x
 _atom_site_fract_y
 _atom_site_fract_z
 _atom_site_fract_occupancy
 Al  Al1  1  0.00000  0.50000  0.50001  1
 Cr  Cr1  1  0.50000  0.50000  0.25184  1
 Cr  Cr2  1  0.00000  0.50000  0.00001  1
 Cr  Cr3  1  0.50000  0.50000  0.74817  1
 Li  Li1  1  0.00000  -0.00000  0.00000  1
 Li  Li2  1  -0.00000  0.00000  0.50001  1
 Li  Li3  1  0.50392  -0.00115  0.24939  1
 Li  Li4  1  0.49608  0.00115  0.75054  1
 O  O1  1  0.75214  0.27718  0.38859  1
 O  O2  1  0.24786  0.72282  0.61141  1
 O  O3  1  0.25906  0.72528  0.11264  1
 O  O4  1  0.74094  0.27472  0.88736  1
 O  O5  1  0.23576  0.27759  0.63081  1
 O  O6  1  0.23576  0.27759  0.14680  1
 O  O7  1  0.76424  0.72241  0.85322  1
 O  O8  1  0.76424  0.72241  0.36921  1
