CIF file written using JARVIS-Tools package.
data_Ti4CoS8
_symmetry_space_group_name_H-M  'C2/m'
_cell_length_a       6.51706
_cell_length_b       6.51707
_cell_length_c       8.03743
_cell_angle_alpha    54.2744
_cell_angle_beta     54.2743
_cell_angle_gamma    62.9242

_symmetry_Int_Tables_number  12
_chemical_formula_structural  Ti4CoS8
_chemical_formula_sum  Ti4CoS8
_cell_volume  221.5750161095336
_cell_formula_units_Z  1
loop_
  _symmetry_equiv_pos_site_id
 _symmetry_equiv_pos_as_xyz
 1  'x, y, z'
loop_
 _atom_site_type_symbol
 _atom_site_label
 _atom_site_symmetry_multiplicity
 _atom_site_fract_x
 _atom_site_fract_y
 _atom_site_fract_z
 _atom_site_fract_occupancy
 Co  Co1  1  0.00000  0.00000  0.00000  1
 S  S1  1  0.96236  0.96236  0.32595  1
 S  S2  1  0.03764  0.03764  0.67405  1
 S  S3  1  0.44995  0.44995  0.33465  1
 S  S4  1  0.55005  0.55005  0.66535  1
 S  S5  1  0.04260  0.55472  0.16671  1
 S  S6  1  0.55472  0.04260  0.16671  1
 S  S7  1  0.95740  0.44528  0.83329  1
 S  S8  1  0.44528  0.95740  0.83329  1
 Ti  Ti1  1  0.26005  0.26005  0.99538  1
 Ti  Ti2  1  0.73995  0.73995  0.00462  1
 Ti  Ti3  1  0.25896  0.74104  0.50000  1
 Ti  Ti4  1  0.74104  0.25896  0.50000  1
