CIF file written using JARVIS-Tools package.
data_AsN
_symmetry_space_group_name_H-M  'P1'
_cell_length_a       7.27733
_cell_length_b       3.65866
_cell_length_c       3.74696
_cell_angle_alpha    120.206
_cell_angle_beta     75.7073
_cell_angle_gamma    83.3181

_symmetry_Int_Tables_number  1
_chemical_formula_structural  AsN
_chemical_formula_sum  As2N2
_cell_volume  80.02800583066792
_cell_formula_units_Z  2
loop_
  _symmetry_equiv_pos_site_id
 _symmetry_equiv_pos_as_xyz
 1  'x, y, z'
loop_
 _atom_site_type_symbol
 _atom_site_label
 _atom_site_symmetry_multiplicity
 _atom_site_fract_x
 _atom_site_fract_y
 _atom_site_fract_z
 _atom_site_fract_occupancy
 As  As1  1  0.74238  0.44500  0.28976  1
 As  As2  1  0.54150  0.24493  0.78618  1
 N  N1  1  0.18552  0.38008  0.53592  1
 N  N2  1  0.10683  0.12089  0.44154  1
