CIF file written using JARVIS-Tools package.
data_Sr4Fe3ClO8
_symmetry_space_group_name_H-M  'P4/mmm'
_cell_length_a       3.8995
_cell_length_b       3.8995
_cell_length_c       15.0997
_cell_angle_alpha    90
_cell_angle_beta     90
_cell_angle_gamma    90

_symmetry_Int_Tables_number  123
_chemical_formula_structural  Sr4Fe3ClO8
_chemical_formula_sum  Sr4Fe3ClO8
_cell_volume  229.60812220051463
_cell_formula_units_Z  1
loop_
  _symmetry_equiv_pos_site_id
 _symmetry_equiv_pos_as_xyz
 1  'x, y, z'
loop_
 _atom_site_type_symbol
 _atom_site_label
 _atom_site_symmetry_multiplicity
 _atom_site_fract_x
 _atom_site_fract_y
 _atom_site_fract_z
 _atom_site_fract_occupancy
 Cl  Cl1  1  0.50000  0.50000  0.00000  1
 Fe  Fe1  1  0.50000  0.50000  0.75119  1
 Fe  Fe2  1  0.50000  0.50000  0.24881  1
 Fe  Fe3  1  0.50000  0.50000  0.50000  1
 O  O1  1  0.50000  0.00000  0.50000  1
 O  O2  1  0.50000  0.50000  0.62748  1
 O  O3  1  0.00000  0.50000  0.77570  1
 O  O4  1  0.50000  0.50000  0.37252  1
 O  O5  1  0.50000  0.00000  0.22430  1
 O  O6  1  0.00000  0.50000  0.50000  1
 O  O7  1  0.00000  0.50000  0.22430  1
 O  O8  1  0.50000  0.00000  0.77570  1
 Sr  Sr1  1  0.00000  0.00000  0.61833  1
 Sr  Sr2  1  0.00000  0.00000  0.13227  1
 Sr  Sr3  1  0.00000  0.00000  0.38167  1
 Sr  Sr4  1  0.00000  0.00000  0.86773  1
