CIF file written using JARVIS-Tools package.
data_Li2Mn3TeO8
_symmetry_space_group_name_H-M  'R-3m'
_cell_length_a       6.22115
_cell_length_b       6.2214
_cell_length_c       6.21995
_cell_angle_alpha    55.3155
_cell_angle_beta     55.3171
_cell_angle_gamma    55.3167

_symmetry_Int_Tables_number  166
_chemical_formula_structural  Li2Mn3TeO8
_chemical_formula_sum  Li2Mn3TeO8
_cell_volume  151.70206318448686
_cell_formula_units_Z  1
loop_
  _symmetry_equiv_pos_site_id
 _symmetry_equiv_pos_as_xyz
 1  'x, y, z'
loop_
 _atom_site_type_symbol
 _atom_site_label
 _atom_site_symmetry_multiplicity
 _atom_site_fract_x
 _atom_site_fract_y
 _atom_site_fract_z
 _atom_site_fract_occupancy
 Li  Li1  1  0.11830  0.11828  0.11833  1
 Li  Li2  1  0.88170  0.88172  0.88167  1
 Mn  Mn1  1  -0.00000  0.50000  0.50000  1
 Mn  Mn2  1  0.50000  -0.00000  0.50000  1
 Mn  Mn3  1  0.50000  0.50000  -0.00000  1
 O  O1  1  0.26792  0.26793  0.26793  1
 O  O2  1  0.24790  0.24791  0.71683  1
 O  O3  1  0.24786  0.71681  0.24787  1
 O  O4  1  0.71681  0.24785  0.24787  1
 O  O5  1  0.28319  0.75215  0.75213  1
 O  O6  1  0.75214  0.28320  0.75213  1
 O  O7  1  0.75210  0.75209  0.28317  1
 O  O8  1  0.73208  0.73207  0.73207  1
 Te  Te1  1  0.50000  0.50000  0.50000  1
