CIF file written using JARVIS-Tools package.
data_MnFe3P4O16
_symmetry_space_group_name_H-M  'Pm'
_cell_length_a       5.82397
_cell_length_b       4.79608
_cell_length_c       9.80224
_cell_angle_alpha    89.6203
_cell_angle_beta     90
_cell_angle_gamma    90

_symmetry_Int_Tables_number  6
_chemical_formula_structural  MnFe3P4O16
_chemical_formula_sum  MnFe3P4O6
_cell_volume  273.7924127817132
_cell_formula_units_Z  1
loop_
  _symmetry_equiv_pos_site_id
 _symmetry_equiv_pos_as_xyz
 1  'x, y, z'
loop_
 _atom_site_type_symbol
 _atom_site_label
 _atom_site_symmetry_multiplicity
 _atom_site_fract_x
 _atom_site_fract_y
 _atom_site_fract_z
 _atom_site_fract_occupancy
 Fe  Fe1  1  0.00000  0.43941  0.77386  1
 Fe  Fe2  1  0.50000  0.56342  0.22438  1
 Fe  Fe3  1  0.50000  0.93975  0.72497  1
 Mn  Mn1  1  0.00000  0.07328  0.27863  1
 O  O1  1  0.50000  0.16951  0.56150  1
 O  O2  1  0.29212  0.25803  0.33483  1
 O  O3  1  0.70788  0.25803  0.33483  1
 O  O4  1  0.20692  0.74055  0.66035  1
 O  O5  1  0.00000  0.29572  0.12258  1
 O  O6  1  0.29248  0.23744  0.83616  1
 O  O7  1  0.00000  0.20430  0.61567  1
 O  O8  1  0.50000  0.33071  0.06280  1
 O  O9  1  0.00000  0.65752  0.94062  1
 O  O10  1  0.20758  0.76167  0.16657  1
 O  O11  1  0.70752  0.23744  0.83616  1
 O  O12  1  0.50000  0.69823  0.88019  1
 O  O13  1  0.50000  0.79607  0.38362  1
 O  O14  1  0.79308  0.74055  0.66035  1
 O  O15  1  0.79242  0.76167  0.16657  1
 O  O16  1  0.00000  0.83850  0.43353  1
 P  P1  1  0.00000  0.89157  0.58865  1
 P  P2  1  0.00000  0.61344  0.09492  1
 P  P3  1  0.50000  0.38472  0.90925  1
 P  P4  1  0.50000  0.10846  0.40903  1
