CIF file written using JARVIS-Tools package.
data_Li2CoO3
_symmetry_space_group_name_H-M  'C2/m'
_cell_length_a       2.82663
_cell_length_b       5.7693
_cell_length_c       6.28695
_cell_angle_alpha    103.655
_cell_angle_beta     103.002
_cell_angle_gamma    89.9598

_symmetry_Int_Tables_number  12
_chemical_formula_structural  Li2CoO3
_chemical_formula_sum  Li4Co2O6
_cell_volume  96.9243234750017
_cell_formula_units_Z  2
loop_
  _symmetry_equiv_pos_site_id
 _symmetry_equiv_pos_as_xyz
 1  'x, y, z'
loop_
 _atom_site_type_symbol
 _atom_site_label
 _atom_site_symmetry_multiplicity
 _atom_site_fract_x
 _atom_site_fract_y
 _atom_site_fract_z
 _atom_site_fract_occupancy
 Co  Co1  1  0.66279  0.82681  0.82543  1
 Co  Co2  1  0.33721  0.17319  0.17457  1
 Li  Li1  1  0.65899  0.33941  0.81755  1
 Li  Li2  1  0.34101  0.66059  0.18245  1
 Li  Li3  1  0.00000  0.00000  0.50000  1
 Li  Li4  1  -0.00000  0.50000  0.50000  1
 O  O1  1  0.17126  0.61430  0.84197  1
 O  O2  1  0.82610  0.93947  0.15181  1
 O  O3  1  0.48875  0.24333  0.47750  1
 O  O4  1  0.17390  0.06053  0.84819  1
 O  O5  1  0.82874  0.38570  0.15803  1
 O  O6  1  0.51125  0.75667  0.52250  1
