CIF file written using JARVIS-Tools package.
data_Mn9CdO10
_symmetry_space_group_name_H-M  'C2/m'
_cell_length_a       8.37528
_cell_length_b       8.37528
_cell_length_c       5.4438
_cell_angle_alpha    83.9259
_cell_angle_beta     83.926
_cell_angle_gamma    142.071

_symmetry_Int_Tables_number  12
_chemical_formula_structural  Mn9CdO10
_chemical_formula_sum  Mn9CdO0
_cell_volume  221.93056674263474
_cell_formula_units_Z  1
loop_
  _symmetry_equiv_pos_site_id
 _symmetry_equiv_pos_as_xyz
 1  'x, y, z'
loop_
 _atom_site_type_symbol
 _atom_site_label
 _atom_site_symmetry_multiplicity
 _atom_site_fract_x
 _atom_site_fract_y
 _atom_site_fract_z
 _atom_site_fract_occupancy
 Cd  Cd1  1  0.50000  0.50000  0.50000  1
 Mn  Mn1  1  0.00000  0.00000  0.00000  1
 Mn  Mn2  1  0.79786  0.20214  -0.00000  1
 Mn  Mn3  1  0.89813  0.10187  0.50000  1
 Mn  Mn4  1  0.70161  0.29839  0.50000  1
 Mn  Mn5  1  0.29839  0.70161  0.50000  1
 Mn  Mn6  1  0.39828  0.60172  -0.00000  1
 Mn  Mn7  1  0.10187  0.89813  0.50000  1
 Mn  Mn8  1  0.60172  0.39828  -0.00000  1
 Mn  Mn9  1  0.20214  0.79786  0.00000  1
 O  O1  1  0.05252  0.45172  0.25148  1
 O  O2  1  0.34697  0.13578  0.75805  1
 O  O3  1  0.54828  0.94748  0.74852  1
 O  O4  1  0.94748  0.54828  0.74852  1
 O  O5  1  0.13578  0.34697  0.75805  1
 O  O6  1  0.45172  0.05252  0.25148  1
 O  O7  1  0.23730  0.23730  0.23674  1
 O  O8  1  0.76270  0.76270  0.76326  1
 O  O9  1  0.86422  0.65303  0.24195  1
 O  O10  1  0.65303  0.86422  0.24195  1
