CIF file written using JARVIS-Tools package.
data_As2N
_symmetry_space_group_name_H-M  'P1'
_cell_length_a       4.53397
_cell_length_b       4.62026
_cell_length_c       2.9193
_cell_angle_alpha    81.6107
_cell_angle_beta     108.848
_cell_angle_gamma    89.4156

_symmetry_Int_Tables_number  1
_chemical_formula_structural  As2N
_chemical_formula_sum  As2N
_cell_volume  57.1478544653882
_cell_formula_units_Z  1
loop_
  _symmetry_equiv_pos_site_id
 _symmetry_equiv_pos_as_xyz
 1  'x, y, z'
loop_
 _atom_site_type_symbol
 _atom_site_label
 _atom_site_symmetry_multiplicity
 _atom_site_fract_x
 _atom_site_fract_y
 _atom_site_fract_z
 _atom_site_fract_occupancy
 As  As1  1  0.56363  0.59820  0.83492  1
 As  As2  1  0.10639  0.00577  0.51415  1
 N  N1  1  0.86126  0.89425  0.91568  1
