CIF file written using JARVIS-Tools package.
data_LiV3O8
_symmetry_space_group_name_H-M  'Pm'
_cell_length_a       3.59795
_cell_length_b       6.70844
_cell_length_c       11.8645
_cell_angle_alpha    76.2715
_cell_angle_beta     90
_cell_angle_gamma    90

_symmetry_Int_Tables_number  6
_chemical_formula_structural  LiV3O8
_chemical_formula_sum  Li2V6O6
_cell_volume  278.18718086417954
_cell_formula_units_Z  2
loop_
  _symmetry_equiv_pos_site_id
 _symmetry_equiv_pos_as_xyz
 1  'x, y, z'
loop_
 _atom_site_type_symbol
 _atom_site_label
 _atom_site_symmetry_multiplicity
 _atom_site_fract_x
 _atom_site_fract_y
 _atom_site_fract_z
 _atom_site_fract_occupancy
 Li  Li1  1  0.00000  0.18430  0.32407  1
 Li  Li2  1  0.50000  0.52525  0.04999  1
 O  O1  1  0.00000  0.17574  0.82618  1
 O  O2  1  0.50000  0.32304  0.95489  1
 O  O3  1  0.50000  0.61450  0.45917  1
 O  O4  1  0.00000  0.65900  0.05036  1
 O  O5  1  0.00000  0.87946  0.32276  1
 O  O6  1  0.00000  0.84434  0.55542  1
 O  O7  1  0.50000  0.49430  0.72331  1
 O  O8  1  0.00000  0.74332  0.81722  1
 O  O9  1  0.50000  0.24773  0.18142  1
 O  O10  1  0.50000  0.93632  0.93282  1
 O  O11  1  0.50000  0.18810  0.43294  1
 O  O12  1  0.50000  0.13479  0.67047  1
 O  O13  1  0.00000  0.50171  0.28059  1
 O  O14  1  0.00000  0.40091  0.54234  1
 O  O15  1  0.00000  0.04300  0.07528  1
 O  O16  1  0.50000  0.80778  0.17356  1
 V  V1  1  0.00000  0.73646  0.20179  1
 V  V2  1  0.50000  0.31347  0.53608  1
 V  V3  1  0.00000  0.86632  0.91710  1
 V  V4  1  0.50000  0.12093  0.07764  1
 V  V5  1  0.00000  0.70304  0.46440  1
 V  V6  1  0.50000  0.26093  0.79717  1
