CIF file written using JARVIS-Tools package.
data_Sr2PCl
_symmetry_space_group_name_H-M  'R-3m'
_cell_length_a       7.48977
_cell_length_b       7.48977
_cell_length_c       7.48977
_cell_angle_alpha    34.2198
_cell_angle_beta     34.2198
_cell_angle_gamma    34.2199

_symmetry_Int_Tables_number  166
_chemical_formula_structural  Sr2PCl
_chemical_formula_sum  Sr2PCl
_cell_volume  118.48690874690276
_cell_formula_units_Z  1
loop_
  _symmetry_equiv_pos_site_id
 _symmetry_equiv_pos_as_xyz
 1  'x, y, z'
loop_
 _atom_site_type_symbol
 _atom_site_label
 _atom_site_symmetry_multiplicity
 _atom_site_fract_x
 _atom_site_fract_y
 _atom_site_fract_z
 _atom_site_fract_occupancy
 Cl  Cl1  1  0.00000  0.00000  0.00000  1
 P  P1  1  0.50000  0.50000  0.50000  1
 Sr  Sr1  1  0.75972  0.75972  0.75972  1
 Sr  Sr2  1  0.24028  0.24028  0.24028  1
