CIF file written using JARVIS-Tools package.
data_Li2Mn3FeO8
_symmetry_space_group_name_H-M  'R-3m'
_cell_length_a       5.70812
_cell_length_b       5.70811
_cell_length_c       5.70811
_cell_angle_alpha    60.3319
_cell_angle_beta     60.3319
_cell_angle_gamma    60.3319

_symmetry_Int_Tables_number  166
_chemical_formula_structural  Li2Mn3FeO8
_chemical_formula_sum  Li2Mn3FeO8
_cell_volume  132.49884883528296
_cell_formula_units_Z  1
loop_
  _symmetry_equiv_pos_site_id
 _symmetry_equiv_pos_as_xyz
 1  'x, y, z'
loop_
 _atom_site_type_symbol
 _atom_site_label
 _atom_site_symmetry_multiplicity
 _atom_site_fract_x
 _atom_site_fract_y
 _atom_site_fract_z
 _atom_site_fract_occupancy
 Fe  Fe1  1  0.50000  0.50000  0.50000  1
 Li  Li1  1  0.12371  0.12371  0.12371  1
 Li  Li2  1  0.87629  0.87629  0.87629  1
 Mn  Mn1  1  0.50000  -0.00000  0.50000  1
 Mn  Mn2  1  0.50000  0.50000  -0.00000  1
 Mn  Mn3  1  0.00000  0.50000  0.50000  1
 O  O1  1  0.26144  0.26144  0.26144  1
 O  O2  1  0.71225  0.26158  0.26158  1
 O  O3  1  0.26158  0.26158  0.71225  1
 O  O4  1  0.26158  0.71225  0.26158  1
 O  O5  1  0.73842  0.28775  0.73842  1
 O  O6  1  0.73842  0.73842  0.28775  1
 O  O7  1  0.28775  0.73842  0.73842  1
 O  O8  1  0.73856  0.73856  0.73856  1
