CIF file written using JARVIS-Tools package.
data_Au2S
_symmetry_space_group_name_H-M  'P1'
_cell_length_a       4.49626
_cell_length_b       5.53291
_cell_length_c       4.48886
_cell_angle_alpha    123.871
_cell_angle_beta     88.4321
_cell_angle_gamma    115.163

_symmetry_Int_Tables_number  1
_chemical_formula_structural  Au2S
_chemical_formula_sum  Au2S
_cell_volume  80.5903566577298
_cell_formula_units_Z  1
loop_
  _symmetry_equiv_pos_site_id
 _symmetry_equiv_pos_as_xyz
 1  'x, y, z'
loop_
 _atom_site_type_symbol
 _atom_site_label
 _atom_site_symmetry_multiplicity
 _atom_site_fract_x
 _atom_site_fract_y
 _atom_site_fract_z
 _atom_site_fract_occupancy
 Au  Au1  1  0.14207  0.10029  0.66420  1
 Au  Au2  1  0.47722  0.77219  0.93572  1
 S  S1  1  0.05894  0.93393  0.04837  1
