CIF file written using JARVIS-Tools package.
data_V2O3F3
_symmetry_space_group_name_H-M  'P1'
_cell_length_a       5.03557
_cell_length_b       5.09174
_cell_length_c       13.077
_cell_angle_alpha    90.8464
_cell_angle_beta     90.2721
_cell_angle_gamma    119.583

_symmetry_Int_Tables_number  1
_chemical_formula_structural  V2O3F3
_chemical_formula_sum  V6O9F9
_cell_volume  291.52293279568823
_cell_formula_units_Z  3
loop_
  _symmetry_equiv_pos_site_id
 _symmetry_equiv_pos_as_xyz
 1  'x, y, z'
loop_
 _atom_site_type_symbol
 _atom_site_label
 _atom_site_symmetry_multiplicity
 _atom_site_fract_x
 _atom_site_fract_y
 _atom_site_fract_z
 _atom_site_fract_occupancy
 F  F1  1  0.95319  0.67192  0.08285  1
 F  F2  1  0.59098  0.00706  0.75251  1
 F  F3  1  0.28039  0.33801  0.42129  1
 F  F4  1  0.05273  0.33778  0.91947  1
 F  F5  1  0.32076  0.07008  0.58976  1
 F  F6  1  0.39519  0.99733  0.24959  1
 F  F7  1  0.00254  0.40580  0.25524  1
 F  F8  1  0.72290  0.66544  0.58382  1
 F  F9  1  0.25495  0.94135  0.91796  1
 O  O1  1  0.07794  0.74681  0.41835  1
 O  O2  1  0.35498  0.26436  0.08204  1
 O  O3  1  0.98082  0.58918  0.75355  1
 O  O4  1  0.76619  0.08413  0.08613  1
 O  O5  1  0.39397  0.41716  0.75095  1
 O  O6  1  0.92181  0.26403  0.58801  1
 O  O7  1  0.65572  0.74686  0.91916  1
 O  O8  1  0.66855  0.92334  0.41797  1
 O  O9  1  0.59677  0.59022  0.25232  1
 V  V1  1  0.32419  0.63792  0.82474  1
 V  V2  1  0.71538  0.34949  0.66425  1
 V  V3  1  0.38149  0.67706  0.32892  1
 V  V4  1  0.64328  0.32499  0.15671  1
 V  V5  1  0.94880  0.97721  0.99799  1
 V  V6  1  0.99647  0.97248  0.48642  1
