CIF file written using JARVIS-Tools package.
data_CoPO4
_symmetry_space_group_name_H-M  'I-4'
_cell_length_a       5.07562
_cell_length_b       5.07562
_cell_length_c       5.07562
_cell_angle_alpha    124.446
_cell_angle_beta     124.446
_cell_angle_gamma    82.4582

_symmetry_Int_Tables_number  82
_chemical_formula_structural  CoPO4
_chemical_formula_sum  CoPO4
_cell_volume  85.43315657214161
_cell_formula_units_Z  1
loop_
  _symmetry_equiv_pos_site_id
 _symmetry_equiv_pos_as_xyz
 1  'x, y, z'
loop_
 _atom_site_type_symbol
 _atom_site_label
 _atom_site_symmetry_multiplicity
 _atom_site_fract_x
 _atom_site_fract_y
 _atom_site_fract_z
 _atom_site_fract_occupancy
 Co  Co1  1  0.25000  0.75000  0.50000  1
 O  O1  1  0.27496  0.33184  0.37998  1
 O  O2  1  0.66816  0.04813  -0.05688  1
 O  O3  1  0.95186  0.89498  0.62002  1
 O  O4  1  0.10501  0.72504  0.05688  1
 P  P1  1  0.00000  0.00000  0.00000  1
