CIF file written using JARVIS-Tools package.
data_HoSiPt
_symmetry_space_group_name_H-M  'Pnma'
_cell_length_a       4.28409
_cell_length_b       6.97371
_cell_length_c       7.46721
_cell_angle_alpha    90
_cell_angle_beta     90
_cell_angle_gamma    90

_symmetry_Int_Tables_number  62
_chemical_formula_structural  HoSiPt
_chemical_formula_sum  Ho4Si4Pt4
_cell_volume  223.0904081779797
_cell_formula_units_Z  4
loop_
  _symmetry_equiv_pos_site_id
 _symmetry_equiv_pos_as_xyz
 1  'x, y, z'
loop_
 _atom_site_type_symbol
 _atom_site_label
 _atom_site_symmetry_multiplicity
 _atom_site_fract_x
 _atom_site_fract_y
 _atom_site_fract_z
 _atom_site_fract_occupancy
 Ho  Ho1  1  0.25000  0.49695  0.70100  1
 Ho  Ho2  1  0.25000  0.99695  0.79900  1
 Ho  Ho3  1  0.75000  0.50305  0.29900  1
 Ho  Ho4  1  0.75000  0.00305  0.20100  1
 Pt  Pt1  1  0.25000  0.20170  0.41523  1
 Pt  Pt2  1  0.25000  0.70170  0.08477  1
 Pt  Pt3  1  0.75000  0.79830  0.58477  1
 Pt  Pt4  1  0.75000  0.29830  0.91523  1
 Si  Si1  1  0.25000  0.81152  0.41154  1
 Si  Si2  1  0.25000  0.31152  0.08846  1
 Si  Si3  1  0.75000  0.18848  0.58846  1
 Si  Si4  1  0.75000  0.68848  0.91154  1
