CIF file written using JARVIS-Tools package.
data_Li7Co5O12
_symmetry_space_group_name_H-M  'P-1'
_cell_length_a       4.92052
_cell_length_b       5.66622
_cell_length_c       7.48413
_cell_angle_alpha    100.938
_cell_angle_beta     96.0469
_cell_angle_gamma    106.821

_symmetry_Int_Tables_number  2
_chemical_formula_structural  Li7Co5O12
_chemical_formula_sum  Li7Co5O2
_cell_volume  193.2341547065305
_cell_formula_units_Z  1
loop_
  _symmetry_equiv_pos_site_id
 _symmetry_equiv_pos_as_xyz
 1  'x, y, z'
loop_
 _atom_site_type_symbol
 _atom_site_label
 _atom_site_symmetry_multiplicity
 _atom_site_fract_x
 _atom_site_fract_y
 _atom_site_fract_z
 _atom_site_fract_occupancy
 Co  Co1  1  -0.00054  0.16985  0.67003  1
 Co  Co2  1  0.00000  0.00000  0.00000  1
 Co  Co3  1  0.00054  0.83015  0.32997  1
 Co  Co4  1  -0.00134  0.66510  0.66976  1
 Co  Co5  1  0.00134  0.33490  0.33024  1
 Li  Li1  1  0.00000  0.50000  0.00000  1
 Li  Li2  1  0.50367  0.09073  0.83979  1
 Li  Li3  1  0.50190  0.42057  0.15727  1
 Li  Li4  1  0.49851  0.75131  0.50063  1
 Li  Li5  1  0.50149  0.24869  0.49937  1
 Li  Li6  1  0.49810  0.57943  0.84273  1
 Li  Li7  1  0.49633  0.90927  0.16021  1
 O  O1  1  0.78225  0.54992  0.41878  1
 O  O2  1  0.78002  0.88353  0.75406  1
 O  O3  1  0.77126  0.37719  0.73721  1
 O  O4  1  0.22874  0.62281  0.26279  1
 O  O5  1  0.21998  0.11647  0.24594  1
 O  O6  1  0.21469  0.94875  0.57871  1
 O  O7  1  0.22628  0.27047  0.90793  1
 O  O8  1  0.22388  0.79709  0.90595  1
 O  O9  1  0.77372  0.72953  0.09207  1
 O  O10  1  0.78531  0.05125  0.42129  1
 O  O11  1  0.21775  0.45008  0.58122  1
 O  O12  1  0.77612  0.20291  0.09405  1
