CIF file written using JARVIS-Tools package.
data_Pr2Te5
_symmetry_space_group_name_H-M  'Cmcm'
_cell_length_a       22.6666
_cell_length_b       22.6666
_cell_length_c       4.46896
_cell_angle_alpha    90
_cell_angle_beta     90
_cell_angle_gamma    168.71

_symmetry_Int_Tables_number  63
_chemical_formula_structural  Pr2Te5
_chemical_formula_sum  Pr4Te0
_cell_volume  449.5067474652525
_cell_formula_units_Z  2
loop_
  _symmetry_equiv_pos_site_id
 _symmetry_equiv_pos_as_xyz
 1  'x, y, z'
loop_
 _atom_site_type_symbol
 _atom_site_label
 _atom_site_symmetry_multiplicity
 _atom_site_fract_x
 _atom_site_fract_y
 _atom_site_fract_z
 _atom_site_fract_occupancy
 Pr  Pr1  1  0.09847  0.90153  0.25000  1
 Pr  Pr2  1  0.90153  0.09847  0.75000  1
 Pr  Pr3  1  0.30725  0.69275  0.25000  1
 Pr  Pr4  1  0.69275  0.30725  0.75000  1
 Te  Te1  1  0.95811  0.04189  0.25000  1
 Te  Te2  1  0.04189  0.95811  0.75000  1
 Te  Te3  1  0.54192  0.45808  0.25000  1
 Te  Te4  1  0.45808  0.54192  0.75000  1
 Te  Te5  1  0.74997  0.25003  0.25000  1
 Te  Te6  1  0.25003  0.74997  0.75000  1
 Te  Te7  1  0.17304  0.82696  0.25000  1
 Te  Te8  1  0.82696  0.17304  0.75000  1
 Te  Te9  1  0.37985  0.62015  0.25000  1
 Te  Te10  1  0.62015  0.37985  0.75000  1
