CIF file written using JARVIS-Tools package.
data_Al2As
_symmetry_space_group_name_H-M  'Cmmm'
_cell_length_a       4.94723
_cell_length_b       2.72001
_cell_length_c       4.94907
_cell_angle_alpha    90
_cell_angle_beta     59.504
_cell_angle_gamma    90

_symmetry_Int_Tables_number  65
_chemical_formula_structural  Al2As
_chemical_formula_sum  Al2As
_cell_volume  57.38445251296478
_cell_formula_units_Z  1
loop_
  _symmetry_equiv_pos_site_id
 _symmetry_equiv_pos_as_xyz
 1  'x, y, z'
loop_
 _atom_site_type_symbol
 _atom_site_label
 _atom_site_symmetry_multiplicity
 _atom_site_fract_x
 _atom_site_fract_y
 _atom_site_fract_z
 _atom_site_fract_occupancy
 Al  Al1  1  0.13284  0.00000  -0.20003  1
 Al  Al2  1  -0.19951  0.00000  0.46670  1
 As  As1  1  0.46667  0.00000  0.13334  1
