CIF file written using JARVIS-Tools package.
data_Li7Co5O12
_symmetry_space_group_name_H-M  'P-1'
_cell_length_a       5.66982
_cell_length_b       6.34079
_cell_length_c       6.34033
_cell_angle_alpha    96.0431
_cell_angle_beta     116.53
_cell_angle_gamma    102.909

_symmetry_Int_Tables_number  2
_chemical_formula_structural  Li7Co5O12
_chemical_formula_sum  Li7Co5O2
_cell_volume  193.21309913029856
_cell_formula_units_Z  1
loop_
  _symmetry_equiv_pos_site_id
 _symmetry_equiv_pos_as_xyz
 1  'x, y, z'
loop_
 _atom_site_type_symbol
 _atom_site_label
 _atom_site_symmetry_multiplicity
 _atom_site_fract_x
 _atom_site_fract_y
 _atom_site_fract_z
 _atom_site_fract_occupancy
 Co  Co1  1  0.49949  0.33066  0.32900  1
 Co  Co2  1  0.00000  0.00000  0.00000  1
 Co  Co3  1  0.50051  0.66934  0.67100  1
 Co  Co4  1  0.00460  0.66933  0.67026  1
 Co  Co5  1  0.99540  0.33067  0.32974  1
 Li  Li1  1  0.50000  0.00000  -0.00000  1
 Li  Li2  1  0.74792  -0.00098  0.49618  1
 Li  Li3  1  0.25208  0.00098  0.50382  1
 Li  Li4  1  0.74129  0.32231  0.83541  1
 Li  Li5  1  0.25871  0.67769  0.16459  1
 Li  Li6  1  0.25540  0.32541  0.83477  1
 Li  Li7  1  0.74460  0.67459  0.16523  1
 O  O1  1  0.87120  0.68043  0.90085  1
 O  O2  1  0.86736  0.34732  0.56312  1
 O  O3  1  0.36134  0.01729  0.24214  1
 O  O4  1  0.13264  0.65268  0.43688  1
 O  O5  1  0.63866  0.98271  0.75786  1
 O  O6  1  0.62973  0.65160  0.43553  1
 O  O7  1  0.64124  0.33993  0.11039  1
 O  O8  1  0.11032  0.98251  0.75762  1
 O  O9  1  0.88968  0.01749  0.24238  1
 O  O10  1  0.37027  0.34840  0.56447  1
 O  O11  1  0.12880  0.31957  0.09915  1
 O  O12  1  0.35876  0.66007  0.88961  1
