CIF file written using JARVIS-Tools package.
data_Zr5Sb3As
_symmetry_space_group_name_H-M  'P6_3/mcm'
_cell_length_a       8.65963
_cell_length_b       8.65963
_cell_length_c       5.96015
_cell_angle_alpha    90
_cell_angle_beta     90
_cell_angle_gamma    120

_symmetry_Int_Tables_number  193
_chemical_formula_structural  Zr5Sb3As
_chemical_formula_sum  Zr0Sb6As2
_cell_volume  387.06724962267873
_cell_formula_units_Z  2
loop_
  _symmetry_equiv_pos_site_id
 _symmetry_equiv_pos_as_xyz
 1  'x, y, z'
loop_
 _atom_site_type_symbol
 _atom_site_label
 _atom_site_symmetry_multiplicity
 _atom_site_fract_x
 _atom_site_fract_y
 _atom_site_fract_z
 _atom_site_fract_occupancy
 As  As1  1  0.00000  0.00000  0.50000  1
 As  As2  1  0.00000  0.00000  0.00000  1
 Sb  Sb1  1  0.00000  0.39426  0.25000  1
 Sb  Sb2  1  0.39426  0.00000  0.25000  1
 Sb  Sb3  1  0.60574  0.60574  0.25000  1
 Sb  Sb4  1  -0.00000  0.60574  0.75000  1
 Sb  Sb5  1  0.60574  -0.00000  0.75000  1
 Sb  Sb6  1  0.39426  0.39426  0.75000  1
 Zr  Zr1  1  0.73615  0.73615  0.75000  1
 Zr  Zr2  1  0.66667  0.33333  0.00000  1
 Zr  Zr3  1  0.66667  0.33333  0.50000  1
 Zr  Zr4  1  0.73615  0.00000  0.25000  1
 Zr  Zr5  1  0.26385  -0.00000  0.75000  1
 Zr  Zr6  1  -0.00000  0.26385  0.75000  1
 Zr  Zr7  1  0.26385  0.26385  0.25000  1
 Zr  Zr8  1  0.00000  0.73615  0.25000  1
 Zr  Zr9  1  0.33333  0.66667  0.50000  1
 Zr  Zr10  1  0.33333  0.66667  0.00000  1
