CIF file written using JARVIS-Tools package.
data_Li4MnCo2O7
_symmetry_space_group_name_H-M  'Cm'
_cell_length_a       14.3487
_cell_length_b       14.3487
_cell_length_c       5.72321
_cell_angle_alpha    83.4316
_cell_angle_beta     83.4317
_cell_angle_gamma    11.3338

_symmetry_Int_Tables_number  8
_chemical_formula_structural  Li4MnCo2O7
_chemical_formula_sum  Li8Mn2Co4O4
_cell_volume  230.03592242146684
_cell_formula_units_Z  2
loop_
  _symmetry_equiv_pos_site_id
 _symmetry_equiv_pos_as_xyz
 1  'x, y, z'
loop_
 _atom_site_type_symbol
 _atom_site_label
 _atom_site_symmetry_multiplicity
 _atom_site_fract_x
 _atom_site_fract_y
 _atom_site_fract_z
 _atom_site_fract_occupancy
 Co  Co1  1  0.42886  0.42886  0.28626  1
 Co  Co2  1  0.57164  0.57164  0.71425  1
 Co  Co3  1  0.14438  0.14438  0.42514  1
 Co  Co4  1  0.28407  0.28407  0.86204  1
 Li  Li1  1  0.71355  0.71355  0.14159  1
 Li  Li2  1  0.00166  0.00166  0.49824  1
 Li  Li3  1  0.42812  0.42812  0.78656  1
 Li  Li4  1  0.71395  0.71395  0.64475  1
 Li  Li5  1  0.85444  0.85444  0.07479  1
 Li  Li6  1  0.15096  0.15096  0.93647  1
 Li  Li7  1  0.27535  0.27535  0.34575  1
 Li  Li8  1  0.57551  0.57551  0.21398  1
 Mn  Mn1  1  0.00041  0.00041  -0.00079  1
 Mn  Mn2  1  0.85651  0.85651  0.57142  1
 O  O1  1  0.78608  0.78608  0.08020  1
 O  O2  1  0.06753  0.06753  0.94963  1
 O  O3  1  0.20822  0.20822  0.40044  1
 O  O4  1  0.35618  0.35618  0.80255  1
 O  O5  1  0.07400  0.07400  0.48790  1
 O  O6  1  0.64250  0.64250  0.20427  1
 O  O7  1  0.22005  0.22005  0.88663  1
 O  O8  1  0.93209  0.93209  0.05265  1
 O  O9  1  0.36082  0.36082  0.33594  1
 O  O10  1  0.50143  0.50143  0.76521  1
 O  O11  1  0.49770  0.49770  0.23536  1
 O  O12  1  0.63815  0.63815  0.66151  1
 O  O13  1  0.79019  0.79019  0.61794  1
 O  O14  1  0.92565  0.92565  0.51932  1
