CIF file written using JARVIS-Tools package.
data_Li4Mn3O7
_symmetry_space_group_name_H-M  'P-1'
_cell_length_a       2.96023
_cell_length_b       7.73039
_cell_length_c       11.12
_cell_angle_alpha    80.6644
_cell_angle_beta     83.8917
_cell_angle_gamma    84.3679

_symmetry_Int_Tables_number  2
_chemical_formula_structural  Li4Mn3O7
_chemical_formula_sum  Li8Mn6O4
_cell_volume  248.82112213174676
_cell_formula_units_Z  2
loop_
  _symmetry_equiv_pos_site_id
 _symmetry_equiv_pos_as_xyz
 1  'x, y, z'
loop_
 _atom_site_type_symbol
 _atom_site_label
 _atom_site_symmetry_multiplicity
 _atom_site_fract_x
 _atom_site_fract_y
 _atom_site_fract_z
 _atom_site_fract_occupancy
 Li  Li1  1  0.64083  0.16325  0.93431  1
 Li  Li2  1  0.86060  0.57695  0.19993  1
 Li  Li3  1  -0.00000  -0.00000  0.50000  1
 Li  Li4  1  0.13940  0.42305  0.80007  1
 Li  Li5  1  0.35917  0.83675  0.06569  1
 Li  Li6  1  0.42951  0.28650  0.35514  1
 Li  Li7  1  0.57049  0.71350  0.64486  1
 Li  Li8  1  0.50000  0.50000  0.00000  1
 Mn  Mn1  1  0.96445  0.77361  0.86188  1
 Mn  Mn2  1  0.03555  0.22639  0.13812  1
 Mn  Mn3  1  0.21166  0.64252  0.42607  1
 Mn  Mn4  1  0.38776  0.06467  0.71595  1
 Mn  Mn5  1  0.61224  0.93533  0.28405  1
 Mn  Mn6  1  0.78834  0.35748  0.57393  1
 O  O1  1  0.85127  0.46029  0.40176  1
 O  O2  1  0.40111  0.94310  0.88214  1
 O  O3  1  0.48207  0.37268  0.17355  1
 O  O4  1  0.57206  0.82428  0.45359  1
 O  O5  1  0.72942  0.25206  0.74494  1
 O  O6  1  -0.01221  0.10851  0.31206  1
 O  O7  1  0.14873  0.53971  0.59824  1
 O  O8  1  0.27058  0.74794  0.25506  1
 O  O9  1  0.42794  0.17572  0.54641  1
 O  O10  1  0.51793  0.62732  0.82645  1
 O  O11  1  0.59889  0.05690  0.11786  1
 O  O12  1  0.91569  0.68959  0.02371  1
 O  O13  1  0.08431  0.31041  0.97629  1
 O  O14  1  0.01221  0.89149  0.68794  1
