CIF file written using JARVIS-Tools package.
data_Y3In5
_symmetry_space_group_name_H-M  'Cmcm'
_cell_length_a       6.38275
_cell_length_b       6.38275
_cell_length_c       10.3438
_cell_angle_alpha    90
_cell_angle_beta     90
_cell_angle_gamma    101.674

_symmetry_Int_Tables_number  63
_chemical_formula_structural  Y3In5
_chemical_formula_sum  Y6In0
_cell_volume  412.6838455021884
_cell_formula_units_Z  2
loop_
  _symmetry_equiv_pos_site_id
 _symmetry_equiv_pos_as_xyz
 1  'x, y, z'
loop_
 _atom_site_type_symbol
 _atom_site_label
 _atom_site_symmetry_multiplicity
 _atom_site_fract_x
 _atom_site_fract_y
 _atom_site_fract_z
 _atom_site_fract_occupancy
 In  In1  1  0.00456  0.00456  0.25000  1
 In  In2  1  0.99544  0.99544  0.75000  1
 In  In3  1  0.30637  0.30637  0.04404  1
 In  In4  1  0.69363  0.69363  0.95596  1
 In  In5  1  0.30637  0.30637  0.45596  1
 In  In6  1  0.69363  0.69363  0.54404  1
 In  In7  1  0.50665  0.07105  0.25000  1
 In  In8  1  0.92895  0.49335  0.75000  1
 In  In9  1  0.49335  0.92895  0.75000  1
 In  In10  1  0.07105  0.50665  0.25000  1
 Y  Y1  1  0.61918  0.61918  0.25000  1
 Y  Y2  1  0.38082  0.38082  0.75000  1
 Y  Y3  1  0.20473  0.79527  0.50000  1
 Y  Y4  1  0.20473  0.79527  0.00000  1
 Y  Y5  1  0.79527  0.20473  0.50000  1
 Y  Y6  1  0.79527  0.20473  0.00000  1
