CIF file written using JARVIS-Tools package.
data_Tb2Co3Si5
_symmetry_space_group_name_H-M  'Ibam'
_cell_length_a       7.89767
_cell_length_b       7.89767
_cell_length_c       7.89767
_cell_angle_alpha    138.729
_cell_angle_beta     105.723
_cell_angle_gamma    88.7054

_symmetry_Int_Tables_number  72
_chemical_formula_structural  Tb2Co3Si5
_chemical_formula_sum  Tb4Co6Si0
_cell_volume  299.78044860345744
_cell_formula_units_Z  2
loop_
  _symmetry_equiv_pos_site_id
 _symmetry_equiv_pos_as_xyz
 1  'x, y, z'
loop_
 _atom_site_type_symbol
 _atom_site_label
 _atom_site_symmetry_multiplicity
 _atom_site_fract_x
 _atom_site_fract_y
 _atom_site_fract_z
 _atom_site_fract_occupancy
 Co  Co1  1  0.25336  0.36223  0.89113  1
 Co  Co2  1  0.47109  0.86223  0.60887  1
 Co  Co3  1  0.74664  0.63777  0.10887  1
 Co  Co4  1  0.52891  0.13777  0.39113  1
 Co  Co5  1  0.00000  0.75000  0.75000  1
 Co  Co6  1  0.00000  0.25000  0.25000  1
 Si  Si1  1  0.05681  0.39934  0.65747  1
 Si  Si2  1  0.22771  0.97771  0.75000  1
 Si  Si3  1  0.77229  0.52229  0.75000  1
 Si  Si4  1  0.77229  0.02229  0.25000  1
 Si  Si5  1  0.22771  0.47771  0.25000  1
 Si  Si6  1  0.50000  0.75000  0.25000  1
 Si  Si7  1  0.25813  0.10066  0.15747  1
 Si  Si8  1  0.74187  0.89934  0.84253  1
 Si  Si9  1  0.94319  0.60066  0.34253  1
 Si  Si10  1  0.50000  0.25000  0.75000  1
 Tb  Tb1  1  0.60017  0.36612  0.23406  1
 Tb  Tb2  1  0.39983  0.63388  0.76594  1
 Tb  Tb3  1  0.13206  0.86612  0.26594  1
 Tb  Tb4  1  0.86794  0.13388  0.73406  1
