CIF file written using JARVIS-Tools package.
data_LiCoSiO4
_symmetry_space_group_name_H-M  'P2_12_12_1'
_cell_length_a       4.82296
_cell_length_b       6.53572
_cell_length_c       9.67635
_cell_angle_alpha    90
_cell_angle_beta     90
_cell_angle_gamma    90

_symmetry_Int_Tables_number  19
_chemical_formula_structural  LiCoSiO4
_chemical_formula_sum  Li4Co4Si4O6
_cell_volume  305.01320317999387
_cell_formula_units_Z  4
loop_
  _symmetry_equiv_pos_site_id
 _symmetry_equiv_pos_as_xyz
 1  'x, y, z'
loop_
 _atom_site_type_symbol
 _atom_site_label
 _atom_site_symmetry_multiplicity
 _atom_site_fract_x
 _atom_site_fract_y
 _atom_site_fract_z
 _atom_site_fract_occupancy
 Co  Co1  1  0.01399  0.05857  0.51340  1
 Co  Co2  1  0.98601  0.55857  0.98660  1
 Co  Co3  1  0.48601  0.94143  0.01340  1
 Co  Co4  1  0.51399  0.44143  0.48660  1
 Li  Li1  1  0.42718  0.78210  0.63087  1
 Li  Li2  1  0.57282  0.28210  0.86913  1
 Li  Li3  1  0.07282  0.21790  0.13087  1
 Li  Li4  1  0.92718  0.71790  0.36913  1
 O  O1  1  0.79897  0.27195  0.58327  1
 O  O2  1  0.72351  -0.00118  0.86290  1
 O  O3  1  0.84473  0.48549  0.81553  1
 O  O4  1  0.76380  0.65075  0.56252  1
 O  O5  1  0.27649  0.49882  0.63710  1
 O  O6  1  0.29897  0.22805  0.41673  1
 O  O7  1  0.23620  0.15075  0.93748  1
 O  O8  1  0.15527  0.98549  0.68447  1
 O  O9  1  0.73620  0.34925  0.06252  1
 O  O10  1  0.65527  0.51451  0.31553  1
 O  O11  1  0.22351  0.50118  0.13710  1
 O  O12  1  0.34473  0.01451  0.18447  1
 O  O13  1  0.20103  0.77195  0.91673  1
 O  O14  1  0.77649  0.00118  0.36290  1
 O  O15  1  0.70103  0.72805  0.08327  1
 O  O16  1  0.26380  0.84925  0.43748  1
 Si  Si1  1  0.94254  0.48307  0.65430  1
 Si  Si2  1  0.05746  0.98307  0.84570  1
 Si  Si3  1  0.55746  0.51693  0.15430  1
 Si  Si4  1  0.44254  0.01693  0.34570  1
