CIF file written using JARVIS-Tools package.
data_Li4MnCo2O7
_symmetry_space_group_name_H-M  'Cm'
_cell_length_a       2.83386
_cell_length_b       4.97926
_cell_length_c       16.3873
_cell_angle_alpha    87.8431
_cell_angle_beta     94.9874
_cell_angle_gamma    89.9773

_symmetry_Int_Tables_number  8
_chemical_formula_structural  Li4MnCo2O7
_chemical_formula_sum  Li8Mn2Co4O4
_cell_volume  230.19363154832976
_cell_formula_units_Z  2
loop_
  _symmetry_equiv_pos_site_id
 _symmetry_equiv_pos_as_xyz
 1  'x, y, z'
loop_
 _atom_site_type_symbol
 _atom_site_label
 _atom_site_symmetry_multiplicity
 _atom_site_fract_x
 _atom_site_fract_y
 _atom_site_fract_z
 _atom_site_fract_occupancy
 Co  Co1  1  0.71616  0.43410  0.43179  1
 Co  Co2  1  0.85460  0.71498  0.70949  1
 Co  Co3  1  0.57187  0.13873  0.14387  1
 Co  Co4  1  0.14300  0.28761  0.28585  1
 Li  Li1  1  0.28512  0.57309  0.56998  1
 Li  Li2  1  0.50092  0.49349  0.00218  1
 Li  Li3  1  0.92520  0.35785  0.85033  1
 Li  Li4  1  0.64694  0.78965  0.29408  1
 Li  Li5  1  0.21721  0.92429  0.43434  1
 Li  Li6  1  0.78431  0.07026  0.56767  1
 Li  Li7  1  0.35207  0.22849  0.70364  1
 Li  Li8  1  0.07419  0.63836  0.14886  1
 Mn  Mn1  1  0.00039  -0.00244  0.00099  1
 Mn  Mn2  1  0.42818  0.85261  0.85680  1
 O  O1  1  0.67605  0.14308  0.35146  1
 O  O2  1  0.24592  0.26944  0.49079  1
 O  O3  1  0.82419  0.41685  0.64843  1
 O  O4  1  0.39282  0.56445  0.78553  1
 O  O5  1  0.03658  0.29116  0.07376  1
 O  O6  1  0.60765  0.43336  0.21567  1
 O  O7  1  0.32530  0.87751  0.65132  1
 O  O8  1  0.74653  0.73391  0.49257  1
 O  O9  1  0.89594  0.01157  0.79276  1
 O  O10  1  0.46566  0.15603  0.93205  1
 O  O11  1  0.53456  0.83732  0.06886  1
 O  O12  1  0.10552  -0.00744  0.21067  1
 O  O13  1  0.17922  0.57798  0.35845  1
 O  O14  1  0.96390  0.69373  0.92780  1
