CIF file written using JARVIS-Tools package.
data_Mn3O2F5
_symmetry_space_group_name_H-M  'Immm'
_cell_length_a       8.35398
_cell_length_b       8.35398
_cell_length_c       8.35398
_cell_angle_alpha    135.741
_cell_angle_beta     130.391
_cell_angle_gamma    68.6422

_symmetry_Int_Tables_number  71
_chemical_formula_structural  Mn3O2F5
_chemical_formula_sum  Mn6O4F0
_cell_volume  304.380576887238
_cell_formula_units_Z  2
loop_
  _symmetry_equiv_pos_site_id
 _symmetry_equiv_pos_as_xyz
 1  'x, y, z'
loop_
 _atom_site_type_symbol
 _atom_site_label
 _atom_site_symmetry_multiplicity
 _atom_site_fract_x
 _atom_site_fract_y
 _atom_site_fract_z
 _atom_site_fract_occupancy
 F  F1  1  0.84649  0.14678  0.69971  1
 F  F2  1  0.88114  0.66913  0.21201  1
 F  F3  1  0.45712  0.66913  0.78799  1
 F  F4  1  0.11886  0.33087  0.78799  1
 F  F5  1  0.15351  0.85322  0.30029  1
 F  F6  1  0.44707  0.14678  0.30029  1
 F  F7  1  0.00000  0.80404  0.80404  1
 F  F8  1  -0.00000  0.19596  0.19596  1
 F  F9  1  0.55293  0.85322  0.69971  1
 F  F10  1  0.54288  0.33087  0.21201  1
 Mn  Mn1  1  0.10821  0.10821  0.00000  1
 Mn  Mn2  1  0.89179  0.89179  -0.00000  1
 Mn  Mn3  1  0.50000  0.00000  -0.00000  1
 Mn  Mn4  1  0.50000  0.50000  0.50000  1
 Mn  Mn5  1  0.00000  0.00000  0.50000  1
 Mn  Mn6  1  -0.00000  0.50000  -0.00000  1
 O  O1  1  0.19955  0.42292  0.22337  1
 O  O2  1  0.19955  0.97618  0.77663  1
 O  O3  1  0.80045  0.02382  0.22337  1
 O  O4  1  0.80045  0.57708  0.77663  1
