CIF file written using JARVIS-Tools package.
data_Tl3SiF7
_symmetry_space_group_name_H-M  'P6_3mc'
_cell_length_a       7.83618
_cell_length_b       7.83618
_cell_length_c       6.90571
_cell_angle_alpha    90
_cell_angle_beta     90
_cell_angle_gamma    120.004

_symmetry_Int_Tables_number  186
_chemical_formula_structural  Tl3SiF7
_chemical_formula_sum  Tl6Si2F4
_cell_volume  367.2247387340101
_cell_formula_units_Z  2
loop_
  _symmetry_equiv_pos_site_id
 _symmetry_equiv_pos_as_xyz
 1  'x, y, z'
loop_
 _atom_site_type_symbol
 _atom_site_label
 _atom_site_symmetry_multiplicity
 _atom_site_fract_x
 _atom_site_fract_y
 _atom_site_fract_z
 _atom_site_fract_occupancy
 F  F1  1  0.56298  0.43702  0.59216  1
 F  F2  1  -0.00002  0.00002  0.53012  1
 F  F3  1  0.12596  0.56296  0.09199  1
 F  F4  1  0.43704  0.87404  0.09199  1
 F  F5  1  0.00002  -0.00002  0.03012  1
 F  F6  1  0.22943  0.45912  0.37808  1
 F  F7  1  0.54088  0.77057  0.37808  1
 F  F8  1  0.77057  0.54088  0.87808  1
 F  F9  1  0.87404  0.43704  0.59199  1
 F  F10  1  0.45912  0.22943  0.87808  1
 F  F11  1  0.22943  0.77057  0.37789  1
 F  F12  1  0.77057  0.22943  0.87789  1
 F  F13  1  0.56296  0.12596  0.59199  1
 F  F14  1  0.43702  0.56298  0.09216  1
 Si  Si1  1  0.66671  0.33329  0.73580  1
 Si  Si2  1  0.33329  0.66671  0.23580  1
 Tl  Tl1  1  0.83623  0.16377  0.27015  1
 Tl  Tl2  1  0.32733  0.16375  0.27020  1
 Tl  Tl3  1  0.16375  0.32733  0.77020  1
 Tl  Tl4  1  0.83625  0.67267  0.27020  1
 Tl  Tl5  1  0.67267  0.83625  0.77020  1
 Tl  Tl6  1  0.16377  0.83623  0.77015  1
