CIF file written using JARVIS-Tools package.
data_Li4MnCo2O7
_symmetry_space_group_name_H-M  'P1'
_cell_length_a       5.74432
_cell_length_b       6.37768
_cell_length_c       7.52245
_cell_angle_alpha    115.49
_cell_angle_beta     112.86
_cell_angle_gamma    76.3989

_symmetry_Int_Tables_number  1
_chemical_formula_structural  Li4MnCo2O7
_chemical_formula_sum  Li8Mn2Co4O4
_cell_volume  228.45617805923527
_cell_formula_units_Z  2
loop_
  _symmetry_equiv_pos_site_id
 _symmetry_equiv_pos_as_xyz
 1  'x, y, z'
loop_
 _atom_site_type_symbol
 _atom_site_label
 _atom_site_symmetry_multiplicity
 _atom_site_fract_x
 _atom_site_fract_y
 _atom_site_fract_z
 _atom_site_fract_occupancy
 Co  Co1  1  0.85562  0.71567  0.56938  1
 Co  Co2  1  0.14318  0.28256  0.42710  1
 Co  Co3  1  0.28643  0.57250  0.85863  1
 Co  Co4  1  0.57025  0.14160  0.71229  1
 Li  Li1  1  0.43009  0.86166  0.29208  1
 Li  Li2  1  0.50038  0.99083  0.00619  1
 Li  Li3  1  0.21698  0.43779  0.14533  1
 Li  Li4  1  0.06768  0.14375  0.70668  1
 Li  Li5  1  0.36008  0.72098  0.56318  1
 Li  Li6  1  0.63456  0.27384  0.42602  1
 Li  Li7  1  0.93188  0.86462  0.29643  1
 Li  Li8  1  0.78693  0.56821  0.85494  1
 Mn  Mn1  1  0.00857  0.99501  0.00328  1
 Mn  Mn2  1  0.70849  0.43745  0.14500  1
 O  O1  1  0.69332  0.86782  0.78153  1
 O  O2  1  0.98409  0.44267  0.63906  1
 O  O3  1  0.25932  0.02240  0.50894  1
 O  O4  1  0.56045  0.56393  0.35570  1
 O  O5  1  0.16516  0.84610  0.78955  1
 O  O6  1  0.44366  0.41400  0.64472  1
 O  O7  1  0.29590  0.14304  0.20788  1
 O  O8  1  0.01869  0.56309  0.35830  1
 O  O9  1  0.60340  0.69201  0.06512  1
 O  O10  1  0.88043  0.27397  0.93318  1
 O  O11  1  0.10574  0.72159  0.05704  1
 O  O12  1  0.40861  0.29888  0.92944  1
 O  O13  1  0.74608  0.99609  0.51581  1
 O  O14  1  0.83404  0.14791  0.20722  1
