CIF file written using JARVIS-Tools package.
data_LiMnF3
_symmetry_space_group_name_H-M  'Pnna'
_cell_length_a       4.92375
_cell_length_b       5.33983
_cell_length_c       8.785
_cell_angle_alpha    90
_cell_angle_beta     90
_cell_angle_gamma    90

_symmetry_Int_Tables_number  52
_chemical_formula_structural  LiMnF3
_chemical_formula_sum  Li4Mn4F2
_cell_volume  230.97485650039056
_cell_formula_units_Z  4
loop_
  _symmetry_equiv_pos_site_id
 _symmetry_equiv_pos_as_xyz
 1  'x, y, z'
loop_
 _atom_site_type_symbol
 _atom_site_label
 _atom_site_symmetry_multiplicity
 _atom_site_fract_x
 _atom_site_fract_y
 _atom_site_fract_z
 _atom_site_fract_occupancy
 F  F1  1  0.25000  0.54695  0.25000  1
 F  F2  1  0.77963  0.91186  0.59159  1
 F  F3  1  0.22037  0.08814  0.40841  1
 F  F4  1  0.75000  0.45305  0.75000  1
 F  F5  1  0.75000  0.95305  0.25000  1
 F  F6  1  0.77963  0.41186  0.40841  1
 F  F7  1  0.72037  0.91186  0.90841  1
 F  F8  1  0.27963  0.08814  0.09159  1
 F  F9  1  0.27963  0.58814  0.90841  1
 F  F10  1  0.22037  0.58814  0.59159  1
 F  F11  1  0.25000  0.04695  0.75000  1
 F  F12  1  0.72037  0.41186  0.09159  1
 Li  Li1  1  0.50000  0.25000  0.29821  1
 Li  Li2  1  0.50000  0.75000  0.70179  1
 Li  Li3  1  0.00000  0.75000  0.79821  1
 Li  Li4  1  0.00000  0.25000  0.20179  1
 Mn  Mn1  1  0.50000  0.25000  0.90300  1
 Mn  Mn2  1  0.50000  0.75000  0.09700  1
 Mn  Mn3  1  0.00000  0.25000  0.59700  1
 Mn  Mn4  1  0.00000  0.75000  0.40300  1
