CIF file written using JARVIS-Tools package.
data_Li7Mn2Co3O12
_symmetry_space_group_name_H-M  'C2/m'
_cell_length_a       2.84282
_cell_length_b       7.54204
_cell_length_c       9.52164
_cell_angle_alpha    100.231
_cell_angle_beta     89.9763
_cell_angle_gamma    100.873

_symmetry_Int_Tables_number  12
_chemical_formula_structural  Li7Mn2Co3O12
_chemical_formula_sum  Li7Mn2Co3O2
_cell_volume  197.18247050177865
_cell_formula_units_Z  1
loop_
  _symmetry_equiv_pos_site_id
 _symmetry_equiv_pos_as_xyz
 1  'x, y, z'
loop_
 _atom_site_type_symbol
 _atom_site_label
 _atom_site_symmetry_multiplicity
 _atom_site_fract_x
 _atom_site_fract_y
 _atom_site_fract_z
 _atom_site_fract_occupancy
 Co  Co1  1  0.16652  0.83310  0.49847  1
 Co  Co2  1  0.50000  0.50000  0.50000  1
 Co  Co3  1  0.83348  0.16690  0.50153  1
 Li  Li1  1  -0.00000  0.50000  -0.00000  1
 Li  Li2  1  0.57580  0.65135  0.24270  1
 Li  Li3  1  0.75038  0.00073  0.74392  1
 Li  Li4  1  0.91806  0.33657  0.25001  1
 Li  Li5  1  0.42420  0.34865  0.75730  1
 Li  Li6  1  0.24962  -0.00073  0.25608  1
 Li  Li7  1  0.08194  0.66343  0.74999  1
 Mn  Mn1  1  0.66068  0.82139  0.99642  1
 Mn  Mn2  1  0.33932  0.17861  0.00358  1
 O  O1  1  0.95694  0.41414  0.60898  1
 O  O2  1  0.79042  0.08111  0.11110  1
 O  O3  1  0.28960  0.07942  0.60871  1
 O  O4  1  0.04306  0.58586  0.39102  1
 O  O5  1  0.55147  0.60279  0.87959  1
 O  O6  1  0.71040  0.92058  0.39129  1
 O  O7  1  0.86971  0.23909  0.88568  1
 O  O8  1  0.20958  0.91889  0.88890  1
 O  O9  1  0.62373  0.74783  0.60599  1
 O  O10  1  0.44853  0.39721  0.12041  1
 O  O11  1  0.37627  0.25217  0.39401  1
 O  O12  1  0.13029  0.76091  0.11432  1
