CIF file written using JARVIS-Tools package.
data_Li4Nb3Cr3Ni2O16
_symmetry_space_group_name_H-M  'Cm'
_cell_length_a       5.92826
_cell_length_b       5.92826
_cell_length_c       9.71664
_cell_angle_alpha    88.972
_cell_angle_beta     88.972
_cell_angle_gamma    60.6931

_symmetry_Int_Tables_number  8
_chemical_formula_structural  Li4Nb3Cr3Ni2O16
_chemical_formula_sum  Li4Nb3Cr3Ni2O6
_cell_volume  297.7137528810546
_cell_formula_units_Z  1
loop_
  _symmetry_equiv_pos_site_id
 _symmetry_equiv_pos_as_xyz
 1  'x, y, z'
loop_
 _atom_site_type_symbol
 _atom_site_label
 _atom_site_symmetry_multiplicity
 _atom_site_fract_x
 _atom_site_fract_y
 _atom_site_fract_z
 _atom_site_fract_occupancy
 Cr  Cr1  1  0.66214  0.17109  0.78698  1
 Cr  Cr2  1  0.83047  0.83047  0.28304  1
 Cr  Cr3  1  0.17109  0.66214  0.78698  1
 Li  Li1  1  0.33885  0.33885  0.09947  1
 Li  Li2  1  0.96840  0.96840  0.50972  1
 Li  Li3  1  0.98675  0.98675  0.99821  1
 Li  Li4  1  0.66782  0.66782  0.61741  1
 Nb  Nb1  1  0.17155  0.17155  0.78399  1
 Nb  Nb2  1  0.83719  0.34104  0.28742  1
 Nb  Nb3  1  0.34104  0.83719  0.28742  1
 Ni  Ni1  1  0.33901  0.33901  0.51896  1
 Ni  Ni2  1  0.66929  0.66929  0.99572  1
 O  O1  1  0.15787  0.67866  0.39451  1
 O  O2  1  0.67866  0.15787  0.39451  1
 O  O3  1  0.51740  0.51740  0.16560  1
 O  O4  1  0.33465  0.33465  0.89892  1
 O  O5  1  0.99978  0.99978  0.68568  1
 O  O6  1  -0.00131  -0.00131  0.18057  1
 O  O7  1  0.48291  0.48291  0.67235  1
 O  O8  1  0.83806  0.31964  0.89752  1
 O  O9  1  0.16249  0.16249  0.40381  1
 O  O10  1  0.97193  0.51924  0.16267  1
 O  O11  1  0.51924  0.97193  0.16267  1
 O  O12  1  0.66938  0.66938  0.40505  1
 O  O13  1  0.49149  0.03496  0.66376  1
 O  O14  1  0.83924  0.83924  0.88796  1
 O  O15  1  0.03496  0.49149  0.66376  1
 O  O16  1  0.31964  0.83806  0.89752  1
