CIF file written using JARVIS-Tools package.
data_Li7Mn2Co3O12
_symmetry_space_group_name_H-M  'P1'
_cell_length_a       4.97348
_cell_length_b       5.67485
_cell_length_c       7.48517
_cell_angle_alpha    79.1073
_cell_angle_beta     77.7827
_cell_angle_gamma    73.2414

_symmetry_Int_Tables_number  1
_chemical_formula_structural  Li7Mn2Co3O12
_chemical_formula_sum  Li7Mn2Co3O2
_cell_volume  195.84944834201582
_cell_formula_units_Z  1
loop_
  _symmetry_equiv_pos_site_id
 _symmetry_equiv_pos_as_xyz
 1  'x, y, z'
loop_
 _atom_site_type_symbol
 _atom_site_label
 _atom_site_symmetry_multiplicity
 _atom_site_fract_x
 _atom_site_fract_y
 _atom_site_fract_z
 _atom_site_fract_occupancy
 Co  Co1  1  0.99853  0.66602  0.33137  1
 Co  Co2  1  0.00005  0.33244  0.66860  1
 Co  Co3  1  -0.00199  0.17061  0.33035  1
 Li  Li1  1  0.99745  0.49849  0.00445  1
 Li  Li2  1  0.50732  0.64983  0.84657  1
 Li  Li3  1  0.50204  0.82509  0.16394  1
 Li  Li4  1  0.49782  0.00514  0.49456  1
 Li  Li5  1  0.50443  0.49839  0.49628  1
 Li  Li6  1  0.49233  0.34757  0.15906  1
 Li  Li7  1  0.49590  0.17584  0.83917  1
 Mn  Mn1  1  0.00237  0.00263  0.00341  1
 Mn  Mn2  1  0.00177  0.82569  0.66916  1
 O  O1  1  0.78087  0.15712  0.57819  1
 O  O2  1  0.77863  -0.00542  0.24547  1
 O  O3  1  0.77025  0.49404  0.26007  1
 O  O4  1  0.22382  0.00337  0.75385  1
 O  O5  1  0.23167  0.50974  0.73719  1
 O  O6  1  0.22816  0.68288  0.08951  1
 O  O7  1  0.22118  0.84276  0.42152  1
 O  O8  1  0.23047  0.15734  0.08946  1
 O  O9  1  0.77382  0.84310  0.90462  1
 O  O10  1  0.78010  0.66004  0.58140  1
 O  O11  1  0.21145  0.34075  0.42020  1
 O  O12  1  0.77157  0.31654  0.91162  1
