CIF file written using JARVIS-Tools package.
data_DyWO4
_symmetry_space_group_name_H-M  'I4_1/a'
_cell_length_a       6.62841
_cell_length_b       6.62841
_cell_length_c       6.62841
_cell_angle_alpha    133.464
_cell_angle_beta     133.464
_cell_angle_gamma    67.9258

_symmetry_Int_Tables_number  88
_chemical_formula_structural  DyWO4
_chemical_formula_sum  Dy2W2O8
_cell_volume  150.76842525841695
_cell_formula_units_Z  2
loop_
  _symmetry_equiv_pos_site_id
 _symmetry_equiv_pos_as_xyz
 1  'x, y, z'
loop_
 _atom_site_type_symbol
 _atom_site_label
 _atom_site_symmetry_multiplicity
 _atom_site_fract_x
 _atom_site_fract_y
 _atom_site_fract_z
 _atom_site_fract_occupancy
 Dy  Dy1  1  0.25000  0.75000  0.50000  1
 Dy  Dy2  1  0.50000  0.50000  -0.00000  1
 O  O1  1  0.09022  0.51261  0.93319  1
 O  O2  1  0.90702  0.34022  0.07760  1
 O  O3  1  0.26261  0.82942  0.92240  1
 O  O4  1  0.17058  0.09298  0.43319  1
 O  O5  1  0.57942  0.15702  0.06681  1
 O  O6  1  0.48739  0.42058  0.57760  1
 O  O7  1  0.84298  0.90978  0.42240  1
 O  O8  1  0.65978  0.73739  0.56681  1
 W  W1  1  0.00000  0.00000  0.00000  1
 W  W2  1  0.75000  0.25000  0.50000  1
