CIF file written using JARVIS-Tools package.
data_Na2MnO3
_symmetry_space_group_name_H-M  'Fddd'
_cell_length_a       9.97123
_cell_length_b       9.51309
_cell_length_c       5.37903
_cell_angle_alpha    78.7263
_cell_angle_beta     69.3327
_cell_angle_gamma    31.941

_symmetry_Int_Tables_number  70
_chemical_formula_structural  Na2MnO3
_chemical_formula_sum  Na8Mn4O2
_cell_volume  246.93078503122206
_cell_formula_units_Z  4
loop_
  _symmetry_equiv_pos_site_id
 _symmetry_equiv_pos_as_xyz
 1  'x, y, z'
loop_
 _atom_site_type_symbol
 _atom_site_label
 _atom_site_symmetry_multiplicity
 _atom_site_fract_x
 _atom_site_fract_y
 _atom_site_fract_z
 _atom_site_fract_occupancy
 Mn  Mn1  1  0.33420  0.33420  0.16580  1
 Mn  Mn2  1  0.91580  0.91580  0.08420  1
 Mn  Mn3  1  0.08420  0.08420  0.91580  1
 Mn  Mn4  1  0.16580  0.16580  0.33420  1
 Na  Na1  1  0.50585  0.50585  0.99415  1
 Na  Na2  1  0.57749  0.57749  0.42251  1
 Na  Na3  1  0.99415  0.99415  0.50585  1
 Na  Na4  1  0.74415  0.74415  0.25585  1
 Na  Na5  1  0.25585  0.25585  0.74415  1
 Na  Na6  1  0.82749  0.82749  0.67251  1
 Na  Na7  1  0.42251  0.42251  0.57749  1
 Na  Na8  1  0.67251  0.67251  0.82749  1
 O  O1  1  0.88973  0.29655  0.65814  1
 O  O2  1  0.95345  0.36027  0.09442  1
 O  O3  1  0.36027  0.95345  0.59186  1
 O  O4  1  0.44646  0.05354  0.05354  1
 O  O5  1  0.05354  0.44646  0.44646  1
 O  O6  1  0.09442  0.59186  0.95345  1
 O  O7  1  0.65814  0.15558  0.88973  1
 O  O8  1  0.15558  0.65814  0.29655  1
 O  O9  1  0.19646  0.80354  0.80354  1
 O  O10  1  0.29655  0.88973  0.15558  1
 O  O11  1  0.59186  0.09442  0.36027  1
 O  O12  1  0.80354  0.19646  0.19646  1
