CIF file written using JARVIS-Tools package.
data_Li7Mn2Co3O12
_symmetry_space_group_name_H-M  'Cm'
_cell_length_a       7.51241
_cell_length_b       7.5124
_cell_length_c       11.5352
_cell_angle_alpha    55.6073
_cell_angle_beta     55.6073
_cell_angle_gamma    21.8337

_symmetry_Int_Tables_number  8
_chemical_formula_structural  Li7Mn2Co3O12
_chemical_formula_sum  Li7Mn2Co3O2
_cell_volume  198.04259009102358
_cell_formula_units_Z  1
loop_
  _symmetry_equiv_pos_site_id
 _symmetry_equiv_pos_as_xyz
 1  'x, y, z'
loop_
 _atom_site_type_symbol
 _atom_site_label
 _atom_site_symmetry_multiplicity
 _atom_site_fract_x
 _atom_site_fract_y
 _atom_site_fract_z
 _atom_site_fract_occupancy
 Co  Co1  1  0.66633  0.66633  0.00048  1
 Co  Co2  1  0.66292  0.66292  0.50124  1
 Co  Co3  1  0.33275  0.33275  0.99958  1
 Li  Li1  1  0.00214  0.00214  0.50413  1
 Li  Li2  1  0.32664  0.32664  0.25760  1
 Li  Li3  1  0.66870  0.66870  0.74176  1
 Li  Li4  1  0.65182  0.65182  0.27419  1
 Li  Li5  1  0.34941  0.34941  0.73288  1
 Li  Li6  1  0.00031  0.00031  0.25758  1
 Li  Li7  1  0.00534  0.00534  0.73356  1
 Mn  Mn1  1  -0.00049  -0.00049  0.00020  1
 Mn  Mn2  1  0.33964  0.33964  0.49625  1
 O  O1  1  0.50899  0.50899  0.62092  1
 O  O2  1  0.17490  0.17490  0.10553  1
 O  O3  1  0.83158  0.83158  0.61319  1
 O  O4  1  0.16715  0.16715  0.38768  1
 O  O5  1  0.82397  0.82397  0.89472  1
 O  O6  1  0.82743  0.82743  0.38890  1
 O  O7  1  0.15865  0.15865  0.89110  1
 O  O8  1  0.49503  0.49503  0.88988  1
 O  O9  1  0.17405  0.17405  0.60915  1
 O  O10  1  0.84024  0.84024  0.10917  1
 O  O11  1  0.48871  0.48871  0.37906  1
 O  O12  1  0.50379  0.50379  0.11125  1
