CIF file written using JARVIS-Tools package.
data_Li2Fe3F8
_symmetry_space_group_name_H-M  'P-1'
_cell_length_a       5.24173
_cell_length_b       5.68537
_cell_length_c       9.92078
_cell_angle_alpha    80.2763
_cell_angle_beta     85.1249
_cell_angle_gamma    87.7827

_symmetry_Int_Tables_number  2
_chemical_formula_structural  Li2Fe3F8
_chemical_formula_sum  Li4Fe6F6
_cell_volume  290.26040080838146
_cell_formula_units_Z  2
loop_
  _symmetry_equiv_pos_site_id
 _symmetry_equiv_pos_as_xyz
 1  'x, y, z'
loop_
 _atom_site_type_symbol
 _atom_site_label
 _atom_site_symmetry_multiplicity
 _atom_site_fract_x
 _atom_site_fract_y
 _atom_site_fract_z
 _atom_site_fract_occupancy
 F  F1  1  0.37368  0.84140  0.13152  1
 F  F2  1  0.09292  0.41962  0.89334  1
 F  F3  1  0.59951  0.64774  0.89462  1
 F  F4  1  0.40049  0.35226  0.10538  1
 F  F5  1  0.62632  0.15860  0.86848  1
 F  F6  1  0.41174  0.07966  0.61714  1
 F  F7  1  0.93943  0.33484  0.61497  1
 F  F8  1  0.12636  0.92253  0.86782  1
 F  F9  1  0.88770  0.84810  0.61452  1
 F  F10  1  0.60124  0.45696  0.34004  1
 F  F11  1  0.06057  0.66516  0.38503  1
 F  F12  1  0.58826  0.92034  0.38286  1
 F  F13  1  0.90708  0.58038  0.10666  1
 F  F14  1  0.87364  0.07747  0.13218  1
 F  F15  1  0.11230  0.15190  0.38548  1
 F  F16  1  0.39876  0.54304  0.65996  1
 Fe  Fe1  1  0.29264  0.39689  0.48839  1
 Fe  Fe2  1  0.26004  0.82310  0.51477  1
 Fe  Fe3  1  0.70736  0.60311  0.51161  1
 Fe  Fe4  1  0.24766  0.65987  0.00055  1
 Fe  Fe5  1  0.73996  0.17690  0.48523  1
 Fe  Fe6  1  0.75234  0.34013  -0.00055  1
 Li  Li1  1  0.69689  0.78713  0.19892  1
 Li  Li2  1  0.19625  0.09970  0.19356  1
 Li  Li3  1  0.80375  0.90030  0.80644  1
 Li  Li4  1  0.30311  0.21287  0.80108  1
