CIF file written using JARVIS-Tools package.
data_Cu3OF5
_symmetry_space_group_name_H-M  'P-1'
_cell_length_a       5.3975
_cell_length_b       5.6513
_cell_length_c       7.1223
_cell_angle_alpha    77.1936
_cell_angle_beta     74.8345
_cell_angle_gamma    73.8904

_symmetry_Int_Tables_number  2
_chemical_formula_structural  Cu3OF5
_chemical_formula_sum  Cu6O2F0
_cell_volume  198.8313529975989
_cell_formula_units_Z  2
loop_
  _symmetry_equiv_pos_site_id
 _symmetry_equiv_pos_as_xyz
 1  'x, y, z'
loop_
 _atom_site_type_symbol
 _atom_site_label
 _atom_site_symmetry_multiplicity
 _atom_site_fract_x
 _atom_site_fract_y
 _atom_site_fract_z
 _atom_site_fract_occupancy
 Cu  Cu1  1  0.31160  0.30496  0.16155  1
 Cu  Cu2  1  0.00000  0.00000  0.00000  1
 Cu  Cu3  1  0.33966  0.34584  0.67252  1
 Cu  Cu4  1  0.00000  0.00000  0.50000  1
 Cu  Cu5  1  0.66034  0.65416  0.32748  1
 Cu  Cu6  1  0.68840  0.69504  0.83845  1
 F  F1  1  0.30732  0.71042  0.49009  1
 F  F2  1  0.53852  0.52985  0.15142  1
 F  F3  1  0.01717  0.59816  0.16613  1
 F  F4  1  0.46148  0.47015  0.84858  1
 F  F5  1  0.62896  0.03097  0.14537  1
 F  F6  1  0.98283  0.40184  0.83387  1
 F  F7  1  0.69268  0.28958  0.50991  1
 F  F8  1  0.37104  0.96903  0.85463  1
 F  F9  1  0.22910  0.22705  0.48935  1
 F  F10  1  0.77090  0.77295  0.51065  1
 O  O1  1  0.90947  0.91418  0.78871  1
 O  O2  1  0.09053  0.08582  0.21129  1
