CIF file written using JARVIS-Tools package.
data_LiInF4
_symmetry_space_group_name_H-M  'C2/m'
_cell_length_a       3.62113
_cell_length_b       3.62294
_cell_length_c       5.0725
_cell_angle_alpha    84.9234
_cell_angle_beta     84.7633
_cell_angle_gamma    89.6377

_symmetry_Int_Tables_number  12
_chemical_formula_structural  LiInF4
_chemical_formula_sum  LiInF4
_cell_volume  66.0089283034907
_cell_formula_units_Z  1
loop_
  _symmetry_equiv_pos_site_id
 _symmetry_equiv_pos_as_xyz
 1  'x, y, z'
loop_
 _atom_site_type_symbol
 _atom_site_label
 _atom_site_symmetry_multiplicity
 _atom_site_fract_x
 _atom_site_fract_y
 _atom_site_fract_z
 _atom_site_fract_occupancy
 F  F1  1  0.45916  0.95324  0.24935  1
 F  F2  1  0.95255  0.45999  0.24923  1
 F  F3  1  0.54084  0.04676  0.75064  1
 F  F4  1  0.04745  0.54001  0.75077  1
 In  In1  1  0.00000  0.00000  0.00000  1
 Li  Li1  1  0.50000  0.50000  0.50000  1
