CIF file written using JARVIS-Tools package.
data_MnInF
_symmetry_space_group_name_H-M  'P-6m2'
_cell_length_a       4.65996
_cell_length_b       4.65996
_cell_length_c       2.89752
_cell_angle_alpha    90
_cell_angle_beta     90
_cell_angle_gamma    120

_symmetry_Int_Tables_number  187
_chemical_formula_structural  MnInF
_chemical_formula_sum  MnInF
_cell_volume  54.49062203475784
_cell_formula_units_Z  1
loop_
  _symmetry_equiv_pos_site_id
 _symmetry_equiv_pos_as_xyz
 1  'x, y, z'
loop_
 _atom_site_type_symbol
 _atom_site_label
 _atom_site_symmetry_multiplicity
 _atom_site_fract_x
 _atom_site_fract_y
 _atom_site_fract_z
 _atom_site_fract_occupancy
 F  F1  1  0.00000  0.00000  0.00000  1
 In  In1  1  0.33333  0.66667  0.00000  1
 Mn  Mn1  1  0.66667  0.33333  0.00000  1
