CIF file written using JARVIS-Tools package.
data_Li7Mn4CoO12
_symmetry_space_group_name_H-M  'Pm'
_cell_length_a       2.83009
_cell_length_b       5.74406
_cell_length_c       13.3912
_cell_angle_alpha    77.6079
_cell_angle_beta     90
_cell_angle_gamma    90

_symmetry_Int_Tables_number  6
_chemical_formula_structural  Li7Mn4CoO12
_chemical_formula_sum  Li7Mn4CoO2
_cell_volume  212.61773757578996
_cell_formula_units_Z  1
loop_
  _symmetry_equiv_pos_site_id
 _symmetry_equiv_pos_as_xyz
 1  'x, y, z'
loop_
 _atom_site_type_symbol
 _atom_site_label
 _atom_site_symmetry_multiplicity
 _atom_site_fract_x
 _atom_site_fract_y
 _atom_site_fract_z
 _atom_site_fract_occupancy
 Co  Co1  1  0.50000  0.35824  0.81133  1
 Li  Li1  1  0.00000  0.66582  0.66971  1
 Li  Li2  1  0.00000  0.50933  0.98091  1
 Li  Li3  1  0.00000  0.81933  0.35230  1
 Li  Li4  1  0.50000  0.83458  0.82262  1
 Li  Li5  1  0.50000  0.17567  0.15531  1
 Li  Li6  1  0.50000  0.49046  0.52485  1
 Li  Li7  1  0.00000  0.16498  0.66473  1
 Mn  Mn1  1  0.00000  0.00926  0.99028  1
 Mn  Mn2  1  0.50000  0.98597  0.51686  1
 Mn  Mn3  1  0.00000  0.32980  0.34259  1
 Mn  Mn4  1  0.50000  0.66467  0.16090  1
 O  O1  1  0.00000  0.22304  0.50676  1
 O  O2  1  0.50000  0.22772  0.00113  1
 O  O3  1  0.50000  0.56357  0.33565  1
 O  O4  1  0.50000  0.92128  0.65292  1
 O  O5  1  0.00000  0.43418  0.16531  1
 O  O6  1  0.50000  0.09448  0.34935  1
 O  O7  1  0.00000  0.09598  0.84728  1
 O  O8  1  0.50000  0.40608  0.67339  1
 O  O9  1  0.50000  0.77877  0.99121  1
 O  O10  1  0.00000  0.90327  0.14905  1
 O  O11  1  0.00000  0.76957  0.50424  1
 O  O12  1  0.00000  0.57398  0.83130  1
