CIF file written using JARVIS-Tools package.
data_Fe4O5F3
_symmetry_space_group_name_H-M  'P1'
_cell_length_a       4.50994
_cell_length_b       7.3956
_cell_length_c       7.43534
_cell_angle_alpha    104.856
_cell_angle_beta     91.1649
_cell_angle_gamma    91.1938

_symmetry_Int_Tables_number  1
_chemical_formula_structural  Fe4O5F3
_chemical_formula_sum  Fe8O0F6
_cell_volume  239.56934300270646
_cell_formula_units_Z  2
loop_
  _symmetry_equiv_pos_site_id
 _symmetry_equiv_pos_as_xyz
 1  'x, y, z'
loop_
 _atom_site_type_symbol
 _atom_site_label
 _atom_site_symmetry_multiplicity
 _atom_site_fract_x
 _atom_site_fract_y
 _atom_site_fract_z
 _atom_site_fract_occupancy
 F  F1  1  0.81021  0.45832  0.70747  1
 F  F2  1  0.69750  0.08974  0.61762  1
 F  F3  1  0.29191  0.16395  0.13612  1
 F  F4  1  0.20786  0.78317  0.02917  1
 F  F5  1  0.78756  0.71830  0.48781  1
 F  F6  1  0.78945  0.24117  0.97597  1
 Fe  Fe1  1  0.95491  0.99607  0.99459  1
 Fe  Fe2  1  0.49768  0.40555  0.14148  1
 Fe  Fe3  1  0.02488  0.48473  0.48077  1
 Fe  Fe4  1  0.99376  0.76374  0.26131  1
 Fe  Fe5  1  0.50799  0.61995  0.87336  1
 Fe  Fe6  1  0.45685  0.86205  0.63391  1
 Fe  Fe7  1  0.50845  0.12303  0.37055  1
 Fe  Fe8  1  0.07206  0.24122  0.74014  1
 O  O1  1  0.79912  0.98079  0.22827  1
 O  O2  1  0.68169  0.83896  0.84393  1
 O  O3  1  0.70317  0.35413  0.34016  1
 O  O4  1  0.31472  0.41023  0.90886  1
 O  O5  1  0.30455  0.90136  0.41194  1
 O  O6  1  0.19352  0.01057  0.77872  1
 O  O7  1  0.20192  0.53232  0.27838  1
 O  O8  1  0.20711  0.27265  0.50848  1
 O  O9  1  0.29136  0.64074  0.64767  1
 O  O10  1  0.70179  0.60727  0.10333  1
