CIF file written using JARVIS-Tools package.
data_Li5Co2Ni5O12
_symmetry_space_group_name_H-M  'P1'
_cell_length_a       4.94831
_cell_length_b       4.97484
_cell_length_c       9.52434
_cell_angle_alpha    94.8186
_cell_angle_beta     79.653
_cell_angle_gamma    119.698

_symmetry_Int_Tables_number  1
_chemical_formula_structural  Li5Co2Ni5O12
_chemical_formula_sum  Li5Co2Ni5O2
_cell_volume  200.34926086224604
_cell_formula_units_Z  1
loop_
  _symmetry_equiv_pos_site_id
 _symmetry_equiv_pos_as_xyz
 1  'x, y, z'
loop_
 _atom_site_type_symbol
 _atom_site_label
 _atom_site_symmetry_multiplicity
 _atom_site_fract_x
 _atom_site_fract_y
 _atom_site_fract_z
 _atom_site_fract_occupancy
 Co  Co1  1  0.25084  0.50160  0.75027  1
 Co  Co2  1  0.75092  0.49741  0.25026  1
 Li  Li1  1  0.16648  0.83882  0.00717  1
 Li  Li2  1  0.66997  0.83500  0.49306  1
 Li  Li3  1  0.08707  0.17344  0.24982  1
 Li  Li4  1  0.33915  0.17385  0.49367  1
 Li  Li5  1  0.83647  0.17222  0.00733  1
 Ni  Ni1  1  0.00183  0.49274  0.49543  1
 Ni  Ni2  1  0.58073  0.16412  0.74965  1
 Ni  Ni3  1  0.48872  0.49335  0.00537  1
 Ni  Ni4  1  0.91463  0.83364  0.74942  1
 Ni  Ni5  1  0.42087  0.83800  0.25008  1
 O  O1  1  0.22452  0.18878  0.86615  1
 O  O2  1  0.70691  0.18018  0.36675  1
 O  O3  1  0.04360  0.80198  0.36765  1
 O  O4  1  0.28573  0.82370  0.63831  1
 O  O5  1  0.12921  0.52163  0.13068  1
 O  O6  1  0.76452  0.80579  0.13337  1
 O  O7  1  0.53245  0.81204  0.86482  1
 O  O8  1  0.39373  0.52479  0.36736  1
 O  O9  1  0.61865  0.50097  0.62893  1
 O  O10  1  0.47743  0.17825  0.13638  1
 O  O11  1  0.87001  0.49314  0.86470  1
 O  O12  1  0.96438  0.19223  0.63337  1
