CIF file written using JARVIS-Tools package.
data_Li7Mn4CoO12
_symmetry_space_group_name_H-M  'Pm'
_cell_length_a       2.83518
_cell_length_b       5.78249
_cell_length_c       12.4432
_cell_angle_alpha    77.549
_cell_angle_beta     90.0089
_cell_angle_gamma    90.0397

_symmetry_Int_Tables_number  6
_chemical_formula_structural  Li7Mn4CoO12
_chemical_formula_sum  Li7Mn4CoO2
_cell_volume  199.20035936806426
_cell_formula_units_Z  1
loop_
  _symmetry_equiv_pos_site_id
 _symmetry_equiv_pos_as_xyz
 1  'x, y, z'
loop_
 _atom_site_type_symbol
 _atom_site_label
 _atom_site_symmetry_multiplicity
 _atom_site_fract_x
 _atom_site_fract_y
 _atom_site_fract_z
 _atom_site_fract_occupancy
 Co  Co1  1  0.49995  0.50195  0.49962  1
 Li  Li1  1  0.50000  0.16519  0.16776  1
 Li  Li2  1  -0.00002  0.17494  0.66298  1
 Li  Li3  1  0.49991  0.00345  0.49658  1
 Li  Li4  1  0.00013  0.47935  0.01701  1
 Li  Li5  1  0.50000  0.66583  0.16690  1
 Li  Li6  1  0.50004  0.32840  0.83675  1
 Li  Li7  1  0.99991  0.84834  0.31973  1
 Mn  Mn1  1  0.00013  -0.00108  0.00722  1
 Mn  Mn2  1  -0.00011  0.33349  0.32763  1
 Mn  Mn3  1  0.50002  0.82960  0.83228  1
 Mn  Mn4  1  0.00001  0.67118  0.66614  1
 O  O1  1  0.49966  0.10575  0.33576  1
 O  O2  1  0.00010  0.91858  0.15393  1
 O  O3  1  -0.00022  0.59822  0.82774  1
 O  O4  1  0.49985  0.76752  0.99142  1
 O  O5  1  0.50025  0.90361  0.66990  1
 O  O6  1  -0.00003  0.41282  0.18040  1
 O  O7  1  0.50014  0.56240  0.34194  1
 O  O8  1  0.00026  0.05904  0.83668  1
 O  O9  1  0.50035  0.22568  -0.00141  1
 O  O10  1  -0.00028  0.27804  0.49433  1
 O  O11  1  0.00017  0.72702  0.50785  1
 O  O12  1  0.49978  0.44069  0.66087  1
