CIF file written using JARVIS-Tools package.
data_Na2BiBAsO7
_symmetry_space_group_name_H-M  'P2_1/m'
_cell_length_a       7.17554
_cell_length_b       5.42525
_cell_length_c       9.56421
_cell_angle_alpha    90.941
_cell_angle_beta     90
_cell_angle_gamma    90

_symmetry_Int_Tables_number  11
_chemical_formula_structural  Na2BiBAsO7
_chemical_formula_sum  Na4Bi2B2As2O4
_cell_volume  372.27580678701025
_cell_formula_units_Z  2
loop_
  _symmetry_equiv_pos_site_id
 _symmetry_equiv_pos_as_xyz
 1  'x, y, z'
loop_
 _atom_site_type_symbol
 _atom_site_label
 _atom_site_symmetry_multiplicity
 _atom_site_fract_x
 _atom_site_fract_y
 _atom_site_fract_z
 _atom_site_fract_occupancy
 As  As1  1  0.25000  0.73069  0.60309  1
 As  As2  1  0.75000  0.26931  0.39691  1
 B  B1  1  0.75000  0.77274  0.91226  1
 B  B2  1  0.25000  0.22726  0.08774  1
 Bi  Bi1  1  0.75000  0.80528  0.62983  1
 Bi  Bi2  1  0.25000  0.19472  0.37017  1
 Na  Na1  1  0.49904  0.26626  0.79308  1
 Na  Na2  1  0.00096  0.26626  0.79308  1
 Na  Na3  1  0.50096  0.73374  0.20692  1
 Na  Na4  1  -0.00096  0.73374  0.20692  1
 O  O1  1  0.25000  0.25644  0.94732  1
 O  O2  1  0.25000  0.00752  0.15737  1
 O  O3  1  0.75000  0.55736  0.83103  1
 O  O4  1  0.06024  0.87902  0.67510  1
 O  O5  1  0.43976  0.87902  0.67510  1
 O  O6  1  0.75000  0.99248  0.84263  1
 O  O7  1  0.93976  0.12098  0.32490  1
 O  O8  1  0.75000  0.57967  0.37132  1
 O  O9  1  0.25000  0.77827  0.42187  1
 O  O10  1  0.56024  0.12098  0.32490  1
 O  O11  1  0.75000  0.22173  0.57813  1
 O  O12  1  0.25000  0.44264  0.16897  1
 O  O13  1  0.25000  0.42033  0.62868  1
 O  O14  1  0.75000  0.74356  0.05268  1
