CIF file written using JARVIS-Tools package.
data_LiMn2P2O10
_symmetry_space_group_name_H-M  'P1'
_cell_length_a       6.621
_cell_length_b       6.80599
_cell_length_c       7.82397
_cell_angle_alpha    90.3534
_cell_angle_beta     91.1186
_cell_angle_gamma    116.454

_symmetry_Int_Tables_number  1
_chemical_formula_structural  LiMn2P2O10
_chemical_formula_sum  Li2Mn4P4O20
_cell_volume  315.547624204582
_cell_formula_units_Z  2
loop_
  _symmetry_equiv_pos_site_id
 _symmetry_equiv_pos_as_xyz
 1  'x, y, z'
loop_
 _atom_site_type_symbol
 _atom_site_label
 _atom_site_symmetry_multiplicity
 _atom_site_fract_x
 _atom_site_fract_y
 _atom_site_fract_z
 _atom_site_fract_occupancy
 Li  Li1  1  0.20435  0.21540  0.06424  1
 Li  Li2  1  0.70432  0.21530  0.56424  1
 Mn  Mn1  1  0.24843  0.99718  0.74952  1
 Mn  Mn2  1  0.25384  0.50381  0.74800  1
 Mn  Mn3  1  0.75385  0.50381  0.24801  1
 Mn  Mn4  1  0.74844  -0.00282  0.24952  1
 O  O1  1  0.21590  0.40871  0.51657  1
 O  O2  1  0.27736  0.26248  0.82391  1
 O  O3  1  0.45654  0.93319  0.17405  1
 O  O4  1  0.05293  0.07134  0.31801  1
 O  O5  1  0.22212  0.73999  0.67683  1
 O  O6  1  0.26871  0.58176  0.98667  1
 O  O7  1  0.42569  0.35158  0.26385  1
 O  O8  1  0.07112  0.65358  0.23534  1
 O  O9  1  0.14618  0.89154  0.97332  1
 O  O10  1  0.92568  0.35157  0.76384  1
 O  O11  1  0.37172  0.12779  0.53177  1
 O  O12  1  0.95653  0.93319  0.67406  1
 O  O13  1  0.55293  0.07134  0.81801  1
 O  O14  1  0.64618  0.89153  0.47332  1
 O  O15  1  0.76873  0.58177  0.48667  1
 O  O16  1  0.71590  0.40871  0.01657  1
 O  O17  1  0.77736  0.26248  0.32391  1
 O  O18  1  0.57111  0.65357  0.73533  1
 O  O19  1  0.72212  0.73999  0.17683  1
 O  O20  1  0.87173  0.12780  0.03177  1
 P  P1  1  0.26606  0.24170  0.41421  1
 P  P2  1  0.23600  0.76031  0.08916  1
 P  P3  1  0.76605  0.24170  0.91421  1
 P  P4  1  0.73599  0.76031  0.58916  1
