CIF file written using JARVIS-Tools package.
data_Li7Mn4CoO12
_symmetry_space_group_name_H-M  'Cm'
_cell_length_a       7.70533
_cell_length_b       7.70533
_cell_length_c       11.5269
_cell_angle_alpha    56.3123
_cell_angle_beta     56.3123
_cell_angle_gamma    21.2832

_symmetry_Int_Tables_number  8
_chemical_formula_structural  Li7Mn4CoO12
_chemical_formula_sum  Li7Mn4CoO2
_cell_volume  205.07080096595885
_cell_formula_units_Z  1
loop_
  _symmetry_equiv_pos_site_id
 _symmetry_equiv_pos_as_xyz
 1  'x, y, z'
loop_
 _atom_site_type_symbol
 _atom_site_label
 _atom_site_symmetry_multiplicity
 _atom_site_fract_x
 _atom_site_fract_y
 _atom_site_fract_z
 _atom_site_fract_occupancy
 Co  Co1  1  0.33126  0.33126  -0.00157  1
 Li  Li1  1  0.66824  0.66824  0.00633  1
 Li  Li2  1  0.33859  0.33859  0.23892  1
 Li  Li3  1  0.99019  0.99019  0.75921  1
 Li  Li4  1  0.65936  0.65936  0.76319  1
 Li  Li5  1  0.30380  0.30380  0.78712  1
 Li  Li6  1  0.02441  0.02441  0.22520  1
 Li  Li7  1  0.68427  0.68427  0.22474  1
 Mn  Mn1  1  0.00417  0.00417  0.99762  1
 Mn  Mn2  1  -0.00272  -0.00272  0.50130  1
 Mn  Mn3  1  0.32924  0.32924  0.50714  1
 Mn  Mn4  1  0.67165  0.67165  0.49329  1
 O  O1  1  0.84424  0.84424  0.10508  1
 O  O2  1  0.51546  0.51546  0.60424  1
 O  O3  1  0.18012  0.18012  0.11787  1
 O  O4  1  0.82637  0.82637  0.62197  1
 O  O5  1  0.17603  0.17603  0.37897  1
 O  O6  1  0.14841  0.14841  0.88492  1
 O  O7  1  0.48566  0.48566  0.39313  1
 O  O8  1  0.82569  0.82569  0.39332  1
 O  O9  1  0.49184  0.49184  0.88943  1
 O  O10  1  0.17314  0.17314  0.60859  1
 O  O11  1  0.83326  0.83326  0.88539  1
 O  O12  1  0.49731  0.49731  0.11460  1
