CIF file written using JARVIS-Tools package.
data_Sm3GaCoS7
_symmetry_space_group_name_H-M  'P6_3'
_cell_length_a       9.65467
_cell_length_b       9.65467
_cell_length_c       6.21298
_cell_angle_alpha    90
_cell_angle_beta     90
_cell_angle_gamma    120

_symmetry_Int_Tables_number  173
_chemical_formula_structural  Sm3GaCoS7
_chemical_formula_sum  Sm6Ga2Co2S4
_cell_volume  501.53910147765095
_cell_formula_units_Z  2
loop_
  _symmetry_equiv_pos_site_id
 _symmetry_equiv_pos_as_xyz
 1  'x, y, z'
loop_
 _atom_site_type_symbol
 _atom_site_label
 _atom_site_symmetry_multiplicity
 _atom_site_fract_x
 _atom_site_fract_y
 _atom_site_fract_z
 _atom_site_fract_occupancy
 Co  Co1  1  0.00000  0.00000  0.49023  1
 Co  Co2  1  0.00000  0.00000  -0.00977  1
 Ga  Ga1  1  0.66667  0.33333  0.90143  1
 Ga  Ga2  1  0.33333  0.66667  0.40143  1
 S  S1  1  0.90085  0.77708  0.73507  1
 S  S2  1  0.44129  0.52500  0.54900  1
 S  S3  1  0.77708  0.87623  0.23507  1
 S  S4  1  0.47500  0.91629  0.54900  1
 S  S5  1  0.55871  0.47500  0.04900  1
 S  S6  1  0.91629  0.44129  0.04900  1
 S  S7  1  0.08371  0.55871  0.54900  1
 S  S8  1  0.66667  0.33333  0.53835  1
 S  S9  1  0.33333  0.66667  0.03835  1
 S  S10  1  0.09915  0.22292  0.23507  1
 S  S11  1  0.22292  0.12377  0.73507  1
 S  S12  1  0.52500  0.08371  0.04900  1
 S  S13  1  0.12377  0.90085  0.23507  1
 S  S14  1  0.87623  0.09915  0.73507  1
 Sm  Sm1  1  0.37476  0.21103  0.32626  1
 Sm  Sm2  1  0.78897  0.16373  0.32626  1
 Sm  Sm3  1  0.83627  0.62524  0.32626  1
 Sm  Sm4  1  0.62524  0.78897  0.82626  1
 Sm  Sm5  1  0.21103  0.83627  0.82626  1
 Sm  Sm6  1  0.16373  0.37476  0.82626  1
