CIF file written using JARVIS-Tools package.
data_YMnF3
_symmetry_space_group_name_H-M  'Amm2'
_cell_length_a       4.86288
_cell_length_b       4.86288
_cell_length_c       3.40784
_cell_angle_alpha    89.9951
_cell_angle_beta     89.9951
_cell_angle_gamma    94.9533

_symmetry_Int_Tables_number  38
_chemical_formula_structural  YMnF3
_chemical_formula_sum  YMnF3
_cell_volume  80.28628653940476
_cell_formula_units_Z  1
loop_
  _symmetry_equiv_pos_site_id
 _symmetry_equiv_pos_as_xyz
 1  'x, y, z'
loop_
 _atom_site_type_symbol
 _atom_site_label
 _atom_site_symmetry_multiplicity
 _atom_site_fract_x
 _atom_site_fract_y
 _atom_site_fract_z
 _atom_site_fract_occupancy
 F  F1  1  0.55692  0.55692  0.00005  1
 F  F2  1  0.04684  0.65672  0.50003  1
 F  F3  1  0.65672  0.04684  0.50003  1
 Mn  Mn1  1  0.32659  0.32659  0.49981  1
 Y  Y1  1  0.90256  0.90256  0.00002  1
