CIF file written using JARVIS-Tools package.
data_Mn2O3F
_symmetry_space_group_name_H-M  'Imma'
_cell_length_a       5.34358
_cell_length_b       5.34358
_cell_length_c       5.34358
_cell_angle_alpha    114.027
_cell_angle_beta     109.53
_cell_angle_gamma    104.983

_symmetry_Int_Tables_number  74
_chemical_formula_structural  Mn2O3F
_chemical_formula_sum  Mn4O6F2
_cell_volume  116.7247227632753
_cell_formula_units_Z  2
loop_
  _symmetry_equiv_pos_site_id
 _symmetry_equiv_pos_as_xyz
 1  'x, y, z'
loop_
 _atom_site_type_symbol
 _atom_site_label
 _atom_site_symmetry_multiplicity
 _atom_site_fract_x
 _atom_site_fract_y
 _atom_site_fract_z
 _atom_site_fract_occupancy
 F  F1  1  0.21787  0.96787  0.25000  1
 F  F2  1  0.78213  0.03213  0.75000  1
 Mn  Mn1  1  0.46934  0.71934  0.75000  1
 Mn  Mn2  1  0.53066  0.28066  0.25000  1
 Mn  Mn3  1  -0.00000  0.00000  0.50000  1
 Mn  Mn4  1  -0.00000  0.50000  0.00000  1
 O  O1  1  0.18910  0.43910  0.75000  1
 O  O2  1  0.69316  -0.00000  0.19316  1
 O  O3  1  0.69316  0.50000  0.69316  1
 O  O4  1  0.30684  0.50000  0.30684  1
 O  O5  1  0.30684  0.00000  0.80684  1
 O  O6  1  0.81090  0.56090  0.25000  1
