CIF file written using JARVIS-Tools package.
data_NaFe2O4
_symmetry_space_group_name_H-M  'Pmmn'
_cell_length_a       4.84733
_cell_length_b       5.59537
_cell_length_c       12.4966
_cell_angle_alpha    63.4065
_cell_angle_beta     90
_cell_angle_gamma    90

_symmetry_Int_Tables_number  59
_chemical_formula_structural  NaFe2O4
_chemical_formula_sum  Na4Fe8O6
_cell_volume  303.08263131254716
_cell_formula_units_Z  4
loop_
  _symmetry_equiv_pos_site_id
 _symmetry_equiv_pos_as_xyz
 1  'x, y, z'
loop_
 _atom_site_type_symbol
 _atom_site_label
 _atom_site_symmetry_multiplicity
 _atom_site_fract_x
 _atom_site_fract_y
 _atom_site_fract_z
 _atom_site_fract_occupancy
 Fe  Fe1  1  0.00290  0.75382  0.99617  1
 Fe  Fe2  1  0.00290  0.24618  0.50383  1
 Fe  Fe3  1  0.99710  0.24618  0.00383  1
 Fe  Fe4  1  0.99710  0.75382  0.49617  1
 Fe  Fe5  1  0.50000  0.00000  0.50000  1
 Fe  Fe6  1  0.50000  0.50000  0.50000  1
 Fe  Fe7  1  0.50000  0.50000  -0.00000  1
 Fe  Fe8  1  0.50000  0.00000  0.00000  1
 Na  Na1  1  0.96939  0.50000  0.25000  1
 Na  Na2  1  0.35278  0.00000  0.25000  1
 Na  Na3  1  0.64722  0.00000  0.75000  1
 Na  Na4  1  0.03061  0.50000  0.75000  1
 O  O1  1  0.66380  0.84180  0.40819  1
 O  O2  1  0.83367  0.40917  0.59231  1
 O  O3  1  0.16632  0.90626  0.09231  1
 O  O4  1  0.83368  0.90626  0.59231  1
 O  O5  1  0.83367  0.59083  0.90769  1
 O  O6  1  0.66380  0.15820  0.09181  1
 O  O7  1  0.83368  0.09374  0.90769  1
 O  O8  1  0.16632  0.09374  0.40769  1
 O  O9  1  0.32995  0.33800  0.91198  1
 O  O10  1  0.33620  0.15820  0.59181  1
 O  O11  1  0.33620  0.84180  0.90819  1
 O  O12  1  0.16633  0.59083  0.40769  1
 O  O13  1  0.67005  0.66200  0.08802  1
 O  O14  1  0.32995  0.66200  0.58802  1
 O  O15  1  0.67005  0.33800  0.41198  1
 O  O16  1  0.16633  0.40917  0.09231  1
