CIF file written using JARVIS-Tools package.
data_Er3GaNiS7
_symmetry_space_group_name_H-M  'P6_3'
_cell_length_a       9.4371
_cell_length_b       9.4371
_cell_length_c       6.16713
_cell_angle_alpha    90
_cell_angle_beta     90
_cell_angle_gamma    120

_symmetry_Int_Tables_number  173
_chemical_formula_structural  Er3GaNiS7
_chemical_formula_sum  Er6Ga2Ni2S4
_cell_volume  475.6536917258451
_cell_formula_units_Z  2
loop_
  _symmetry_equiv_pos_site_id
 _symmetry_equiv_pos_as_xyz
 1  'x, y, z'
loop_
 _atom_site_type_symbol
 _atom_site_label
 _atom_site_symmetry_multiplicity
 _atom_site_fract_x
 _atom_site_fract_y
 _atom_site_fract_z
 _atom_site_fract_occupancy
 Er  Er1  1  0.84017  0.62448  0.67733  1
 Er  Er2  1  0.78431  0.15983  0.67733  1
 Er  Er3  1  0.37552  0.21569  0.67733  1
 Er  Er4  1  0.15983  0.37552  0.17733  1
 Er  Er5  1  0.21569  0.84017  0.17733  1
 Er  Er6  1  0.62448  0.78431  0.17733  1
 Ga  Ga1  1  0.33333  0.66667  0.60616  1
 Ga  Ga2  1  0.66667  0.33333  0.10616  1
 Ni  Ni1  1  0.00000  0.00000  0.00598  1
 Ni  Ni2  1  0.00000  0.00000  0.50598  1
 S  S1  1  0.56151  0.47838  0.94597  1
 S  S2  1  0.23508  0.13076  0.27093  1
 S  S3  1  0.52162  0.08314  0.94597  1
 S  S4  1  0.43849  0.52162  0.44597  1
 S  S5  1  0.08314  0.56151  0.44597  1
 S  S6  1  0.91686  0.43849  0.94597  1
 S  S7  1  0.10433  0.23508  0.77093  1
 S  S8  1  0.66667  0.33333  0.47267  1
 S  S9  1  0.13076  0.89567  0.77093  1
 S  S10  1  0.76492  0.86924  0.77093  1
 S  S11  1  0.47838  0.91686  0.44597  1
 S  S12  1  0.86924  0.10433  0.27093  1
 S  S13  1  0.33333  0.66667  0.97267  1
 S  S14  1  0.89567  0.76492  0.27093  1
