CIF file written using JARVIS-Tools package.
data_Li5Mn2Ni5O12
_symmetry_space_group_name_H-M  'C2'
_cell_length_a       5.01383
_cell_length_b       5.01384
_cell_length_c       9.58248
_cell_angle_alpha    84.8413
_cell_angle_beta     84.8413
_cell_angle_gamma    120.688

_symmetry_Int_Tables_number  5
_chemical_formula_structural  Li5Mn2Ni5O12
_chemical_formula_sum  Li5Mn2Ni5O2
_cell_volume  203.70553791673368
_cell_formula_units_Z  1
loop_
  _symmetry_equiv_pos_site_id
 _symmetry_equiv_pos_as_xyz
 1  'x, y, z'
loop_
 _atom_site_type_symbol
 _atom_site_label
 _atom_site_symmetry_multiplicity
 _atom_site_fract_x
 _atom_site_fract_y
 _atom_site_fract_z
 _atom_site_fract_occupancy
 Li  Li1  1  0.83062  0.66633  0.25552  1
 Li  Li2  1  0.67382  0.83440  0.74296  1
 Li  Li3  1  0.33367  0.16938  0.74448  1
 Li  Li4  1  0.16560  0.32618  0.25704  1
 Li  Li5  1  0.08473  0.91527  0.50000  1
 Mn  Mn1  1  0.74685  0.25315  0.50000  1
 Mn  Mn2  1  0.25016  0.74984  -0.00000  1
 Ni  Ni1  1  0.91602  0.08398  -0.00000  1
 Ni  Ni2  1  0.41944  0.58056  0.50000  1
 Ni  Ni3  1  0.00462  0.51263  0.74332  1
 Ni  Ni4  1  0.58156  0.41844  -0.00000  1
 Ni  Ni5  1  0.48737  0.99538  0.25668  1
 O  O1  1  0.11610  0.59828  0.38254  1
 O  O2  1  0.21546  0.02411  0.11893  1
 O  O3  1  0.03349  0.23287  0.61843  1
 O  O4  1  0.76713  0.96651  0.38157  1
 O  O5  1  0.87814  0.38380  0.11501  1
 O  O6  1  0.61620  0.12186  0.88499  1
 O  O7  1  0.70745  0.52472  0.61715  1
 O  O8  1  0.47528  0.29255  0.38285  1
 O  O9  1  0.52811  0.70945  0.11493  1
 O  O10  1  0.29055  0.47189  0.88507  1
 O  O11  1  0.40172  0.88390  0.61746  1
 O  O12  1  0.97589  0.78454  0.88107  1
