CIF file written using JARVIS-Tools package.
data_La3FeCoS7
_symmetry_space_group_name_H-M  'P6_3'
_cell_length_a       9.9997
_cell_length_b       9.99971
_cell_length_c       6.11732
_cell_angle_alpha    90
_cell_angle_beta     90
_cell_angle_gamma    120

_symmetry_Int_Tables_number  173
_chemical_formula_structural  La3FeCoS7
_chemical_formula_sum  La6Fe2Co2S4
_cell_volume  529.7439291071981
_cell_formula_units_Z  2
loop_
  _symmetry_equiv_pos_site_id
 _symmetry_equiv_pos_as_xyz
 1  'x, y, z'
loop_
 _atom_site_type_symbol
 _atom_site_label
 _atom_site_symmetry_multiplicity
 _atom_site_fract_x
 _atom_site_fract_y
 _atom_site_fract_z
 _atom_site_fract_occupancy
 Co  Co1  1  0.00000  0.00000  0.44579  1
 Co  Co2  1  0.00000  0.00000  0.94579  1
 Fe  Fe1  1  0.33333  0.66667  0.84980  1
 Fe  Fe2  1  0.66667  0.33333  0.34980  1
 La  La1  1  0.22126  0.37876  0.26494  1
 La  La2  1  0.62124  0.84250  0.26494  1
 La  La3  1  0.15750  0.77874  0.26494  1
 La  La4  1  0.77874  0.62124  0.76494  1
 La  La5  1  0.37876  0.15750  0.76494  1
 La  La6  1  0.84250  0.22126  0.76494  1
 S  S1  1  0.12357  0.21292  0.69189  1
 S  S2  1  0.33333  0.66667  0.48479  1
 S  S3  1  0.08935  0.87643  0.69189  1
 S  S4  1  0.87643  0.78708  0.19189  1
 S  S5  1  0.21292  0.08935  0.19189  1
 S  S6  1  0.78708  0.91065  0.69189  1
 S  S7  1  0.52253  0.43241  0.47932  1
 S  S8  1  0.47747  0.56759  0.97932  1
 S  S9  1  0.43241  0.90989  0.97932  1
 S  S10  1  0.90989  0.47747  0.47932  1
 S  S11  1  0.91065  0.12357  0.19189  1
 S  S12  1  0.56759  0.09011  0.47932  1
 S  S13  1  0.09011  0.52253  0.97932  1
 S  S14  1  0.66667  0.33333  0.98479  1
