CIF file written using JARVIS-Tools package.
data_Er3Si2Ni6
_symmetry_space_group_name_H-M  'Im-3m'
_cell_length_a       7.53288
_cell_length_b       7.53288
_cell_length_c       7.53288
_cell_angle_alpha    109.471
_cell_angle_beta     109.471
_cell_angle_gamma    109.471

_symmetry_Int_Tables_number  229
_chemical_formula_structural  Er3Si2Ni6
_chemical_formula_sum  Er6Si4Ni2
_cell_volume  329.049696020567
_cell_formula_units_Z  2
loop_
  _symmetry_equiv_pos_site_id
 _symmetry_equiv_pos_as_xyz
 1  'x, y, z'
loop_
 _atom_site_type_symbol
 _atom_site_label
 _atom_site_symmetry_multiplicity
 _atom_site_fract_x
 _atom_site_fract_y
 _atom_site_fract_z
 _atom_site_fract_occupancy
 Er  Er1  1  0.71338  0.71338  0.00000  1
 Er  Er2  1  0.28662  -0.00000  0.28662  1
 Er  Er3  1  -0.00000  0.28662  0.28662  1
 Er  Er4  1  0.28662  0.28662  -0.00000  1
 Er  Er5  1  0.71338  0.00000  0.71338  1
 Er  Er6  1  0.00000  0.71338  0.71338  1
 Ni  Ni1  1  0.66963  0.33926  0.66963  1
 Ni  Ni2  1  0.66963  0.00000  0.33037  1
 Ni  Ni3  1  -0.00000  0.66963  0.33037  1
 Ni  Ni4  1  0.66963  0.33037  -0.00000  1
 Ni  Ni5  1  0.33037  0.33037  0.66074  1
 Ni  Ni6  1  -0.00000  0.33037  0.66963  1
 Ni  Ni7  1  0.33037  0.66963  0.00000  1
 Ni  Ni8  1  0.66963  0.66963  0.33926  1
 Ni  Ni9  1  0.66074  0.33037  0.33037  1
 Ni  Ni10  1  0.33037  0.66074  0.33037  1
 Ni  Ni11  1  0.33037  0.00000  0.66963  1
 Ni  Ni12  1  0.33926  0.66963  0.66963  1
 Si  Si1  1  0.50000  0.50000  0.50000  1
 Si  Si2  1  0.50000  0.00000  -0.00000  1
 Si  Si3  1  -0.00000  0.50000  -0.00000  1
 Si  Si4  1  0.00000  0.00000  0.50000  1
