CIF file written using JARVIS-Tools package.
data_V3CoP4O16
_symmetry_space_group_name_H-M  'Pm'
_cell_length_a       5.72805
_cell_length_b       4.75676
_cell_length_c       9.80002
_cell_angle_alpha    89.5497
_cell_angle_beta     90
_cell_angle_gamma    90

_symmetry_Int_Tables_number  6
_chemical_formula_structural  V3CoP4O16
_chemical_formula_sum  V3CoP4O6
_cell_volume  267.01253959118077
_cell_formula_units_Z  1
loop_
  _symmetry_equiv_pos_site_id
 _symmetry_equiv_pos_as_xyz
 1  'x, y, z'
loop_
 _atom_site_type_symbol
 _atom_site_label
 _atom_site_symmetry_multiplicity
 _atom_site_fract_x
 _atom_site_fract_y
 _atom_site_fract_z
 _atom_site_fract_occupancy
 Co  Co1  1  0.00000  0.05708  0.27206  1
 O  O1  1  0.21383  0.73622  0.16388  1
 O  O2  1  0.50000  0.17478  0.56412  1
 O  O3  1  0.29311  0.28822  0.33661  1
 O  O4  1  0.70689  0.28822  0.33661  1
 O  O5  1  0.20921  0.74012  0.66829  1
 O  O6  1  0.00000  0.27572  0.10470  1
 O  O7  1  0.29090  0.23588  0.83457  1
 O  O8  1  0.00000  0.20478  0.61637  1
 O  O9  1  0.50000  0.31369  0.06464  1
 O  O10  1  0.00000  0.67358  0.93665  1
 O  O11  1  0.78617  0.73622  0.16388  1
 O  O12  1  0.00000  0.82398  0.43839  1
 O  O13  1  0.50000  0.69919  0.88771  1
 O  O14  1  0.50000  0.81522  0.38138  1
 O  O15  1  0.79079  0.74012  0.66829  1
 O  O16  1  0.70910  0.23588  0.83457  1
 P  P1  1  0.00000  0.89045  0.58781  1
 P  P2  1  0.00000  0.59195  0.08840  1
 P  P3  1  0.50000  0.38317  0.91334  1
 P  P4  1  0.50000  0.13018  0.40947  1
 V  V1  1  0.50000  0.94911  0.73070  1
 V  V2  1  0.50000  0.56419  0.22730  1
 V  V3  1  0.00000  0.45204  0.77027  1
