CIF file written using JARVIS-Tools package.
data_LiV2OF5
_symmetry_space_group_name_H-M  'P1'
_cell_length_a       5.0892
_cell_length_b       5.42607
_cell_length_c       12.5101
_cell_angle_alpha    93.889
_cell_angle_beta     89.0484
_cell_angle_gamma    117.563

_symmetry_Int_Tables_number  1
_chemical_formula_structural  LiV2OF5
_chemical_formula_sum  Li3V6O3F5
_cell_volume  305.5022984910555
_cell_formula_units_Z  3
loop_
  _symmetry_equiv_pos_site_id
 _symmetry_equiv_pos_as_xyz
 1  'x, y, z'
loop_
 _atom_site_type_symbol
 _atom_site_label
 _atom_site_symmetry_multiplicity
 _atom_site_fract_x
 _atom_site_fract_y
 _atom_site_fract_z
 _atom_site_fract_occupancy
 F  F1  1  0.45554  0.54521  0.29682  1
 F  F2  1  0.26306  0.17108  0.87337  1
 F  F3  1  0.59237  0.82018  0.54903  1
 F  F4  1  0.70291  0.68683  0.91580  1
 F  F5  1  0.95154  0.64761  0.42309  1
 F  F6  1  0.62784  0.99657  0.75403  1
 F  F7  1  0.90022  0.46044  0.20742  1
 F  F8  1  0.55056  0.44710  0.69617  1
 F  F9  1  0.78995  0.23375  0.96856  1
 F  F10  1  0.85884  0.10746  0.37124  1
 F  F11  1  0.38840  0.01269  0.23437  1
 F  F12  1  0.02084  0.33774  0.58017  1
 F  F13  1  0.15624  0.90611  0.62654  1
 F  F14  1  0.74850  0.87662  0.12486  1
 F  F15  1  0.23524  0.79993  0.03263  1
 Li  Li1  1  0.29197  0.56558  0.92293  1
 Li  Li2  1  0.59552  0.20036  0.58677  1
 Li  Li3  1  0.59821  0.22406  0.10767  1
 O  O1  1  0.27550  0.33595  0.08277  1
 O  O2  1  0.07639  0.53839  0.78675  1
 O  O3  1  0.39015  0.18992  0.44936  1
 V  V1  1  0.69707  0.35395  0.82950  1
 V  V2  1  0.64812  0.32238  0.34404  1
 V  V3  1  0.01607  0.00508  0.49419  1
 V  V4  1  0.31912  0.65904  0.67470  1
 V  V5  1  0.02062  0.02246  0.00315  1
 V  V6  1  0.33166  0.64012  0.16796  1
