CIF file written using JARVIS-Tools package.
data_Li4Ti5Co3O16
_symmetry_space_group_name_H-M  'Cm'
_cell_length_a       5.73412
_cell_length_b       5.73413
_cell_length_c       9.48774
_cell_angle_alpha    89.685
_cell_angle_beta     89.685
_cell_angle_gamma    61.1338

_symmetry_Int_Tables_number  8
_chemical_formula_structural  Li4Ti5Co3O16
_chemical_formula_sum  Li4Ti5Co3O6
_cell_volume  273.19220966290084
_cell_formula_units_Z  1
loop_
  _symmetry_equiv_pos_site_id
 _symmetry_equiv_pos_as_xyz
 1  'x, y, z'
loop_
 _atom_site_type_symbol
 _atom_site_label
 _atom_site_symmetry_multiplicity
 _atom_site_fract_x
 _atom_site_fract_y
 _atom_site_fract_z
 _atom_site_fract_occupancy
 Co  Co1  1  0.34354  0.83324  0.28762  1
 Co  Co2  1  0.17462  0.17462  0.78837  1
 Co  Co3  1  0.83324  0.34354  0.28762  1
 Li  Li1  1  0.33282  0.33282  0.10876  1
 Li  Li2  1  0.01132  0.01132  0.00744  1
 Li  Li3  1  0.00811  0.00811  0.50381  1
 Li  Li4  1  0.66312  0.66312  0.59809  1
 O  O1  1  0.67159  0.17184  0.40328  1
 O  O2  1  0.52139  0.52139  0.17085  1
 O  O3  1  0.33584  0.33584  0.90178  1
 O  O4  1  0.00449  0.00449  0.69361  1
 O  O5  1  0.00693  0.00693  0.19487  1
 O  O6  1  0.17184  0.67159  0.40328  1
 O  O7  1  0.48200  0.48200  0.66443  1
 O  O8  1  0.03173  0.48891  0.65269  1
 O  O9  1  0.16978  0.16978  0.39673  1
 O  O10  1  0.82701  0.33541  0.90557  1
 O  O11  1  0.51746  0.96798  0.15925  1
 O  O12  1  0.66535  0.66535  0.39612  1
 O  O13  1  0.48891  0.03173  0.65269  1
 O  O14  1  0.83276  0.83276  0.90482  1
 O  O15  1  0.96798  0.51746  0.15925  1
 O  O16  1  0.33541  0.82701  0.90557  1
 Ti  Ti1  1  0.65429  0.65429  0.00765  1
 Ti  Ti2  1  0.15932  0.65103  0.78112  1
 Ti  Ti3  1  0.33527  0.33527  0.49782  1
 Ti  Ti4  1  0.65103  0.15932  0.78112  1
 Ti  Ti5  1  0.82450  0.82450  0.27635  1
