CIF file written using JARVIS-Tools package.
data_LiVF6
_symmetry_space_group_name_H-M  'P-31c'
_cell_length_a       5.11136
_cell_length_b       5.11136
_cell_length_c       8.75801
_cell_angle_alpha    90
_cell_angle_beta     90
_cell_angle_gamma    120

_symmetry_Int_Tables_number  163
_chemical_formula_structural  LiVF6
_chemical_formula_sum  Li2V2F2
_cell_volume  198.15703399115787
_cell_formula_units_Z  2
loop_
  _symmetry_equiv_pos_site_id
 _symmetry_equiv_pos_as_xyz
 1  'x, y, z'
loop_
 _atom_site_type_symbol
 _atom_site_label
 _atom_site_symmetry_multiplicity
 _atom_site_fract_x
 _atom_site_fract_y
 _atom_site_fract_z
 _atom_site_fract_occupancy
 F  F1  1  0.05390  0.68943  0.13321  1
 F  F2  1  0.31057  0.94610  0.36679  1
 F  F3  1  0.05390  0.36447  0.36679  1
 F  F4  1  0.31057  0.36447  0.13321  1
 F  F5  1  0.63553  0.94610  0.13321  1
 F  F6  1  0.36447  0.31057  0.63321  1
 F  F7  1  0.63553  0.68943  0.36679  1
 F  F8  1  0.36447  0.05390  0.86679  1
 F  F9  1  0.68943  0.63553  0.86679  1
 F  F10  1  0.94610  0.63553  0.63321  1
 F  F11  1  0.68943  0.05390  0.63321  1
 F  F12  1  0.94610  0.31057  0.86679  1
 Li  Li1  1  0.00000  0.00000  0.25000  1
 Li  Li2  1  0.00000  0.00000  0.75000  1
 V  V1  1  0.33333  0.66667  0.25000  1
 V  V2  1  0.66667  0.33333  0.75000  1
