CIF file written using JARVIS-Tools package.
data_Li4Ti3Mn3Sn2O16
_symmetry_space_group_name_H-M  'Cm'
_cell_length_a       6.02502
_cell_length_b       6.02503
_cell_length_c       9.78692
_cell_angle_alpha    88.7159
_cell_angle_beta     88.7159
_cell_angle_gamma    58.7034

_symmetry_Int_Tables_number  8
_chemical_formula_structural  Li4Ti3Mn3Sn2O16
_chemical_formula_sum  Li4Ti3Mn3Sn2O6
_cell_volume  303.4777311958909
_cell_formula_units_Z  1
loop_
  _symmetry_equiv_pos_site_id
 _symmetry_equiv_pos_as_xyz
 1  'x, y, z'
loop_
 _atom_site_type_symbol
 _atom_site_label
 _atom_site_symmetry_multiplicity
 _atom_site_fract_x
 _atom_site_fract_y
 _atom_site_fract_z
 _atom_site_fract_occupancy
 Li  Li1  1  0.65870  0.65870  0.10318  1
 Li  Li2  1  0.99523  0.99523  0.01085  1
 Li  Li3  1  0.00740  0.00740  0.50578  1
 Li  Li4  1  0.33408  0.33408  0.59944  1
 Mn  Mn1  1  0.17002  0.66069  0.28832  1
 Mn  Mn2  1  0.66069  0.17002  0.28832  1
 Mn  Mn3  1  0.83069  0.83069  0.78570  1
 O  O1  1  0.33310  0.85433  0.40136  1
 O  O2  1  0.47705  0.47705  0.16287  1
 O  O3  1  0.65559  0.65559  0.89396  1
 O  O4  1  0.00559  0.00559  0.69122  1
 O  O5  1  -0.00143  -0.00143  0.19645  1
 O  O6  1  0.85433  0.33310  0.40136  1
 O  O7  1  0.51861  0.51861  0.66501  1
 O  O8  1  0.96693  0.50570  0.66206  1
 O  O9  1  0.84883  0.84883  0.40565  1
 O  O10  1  0.16764  0.67902  0.90091  1
 O  O11  1  0.46788  0.02396  0.15550  1
 O  O12  1  0.33216  0.33216  0.38960  1
 O  O13  1  0.50570  0.96693  0.66206  1
 O  O14  1  0.16120  0.16120  0.89593  1
 O  O15  1  0.02396  0.46788  0.15550  1
 O  O16  1  0.67902  0.16764  0.90091  1
 Sn  Sn1  1  0.33286  0.33286  0.01102  1
 Sn  Sn2  1  0.67404  0.67404  0.50751  1
 Ti  Ti1  1  0.83235  0.33851  0.78527  1
 Ti  Ti2  1  0.33851  0.83235  0.78527  1
 Ti  Ti3  1  0.16921  0.16921  0.28116  1
