CIF file written using JARVIS-Tools package.
data_V2O3F
_symmetry_space_group_name_H-M  'Amm2'
_cell_length_a       4.64748
_cell_length_b       4.64748
_cell_length_c       14.5529
_cell_angle_alpha    90
_cell_angle_beta     90
_cell_angle_gamma    93.2401

_symmetry_Int_Tables_number  38
_chemical_formula_structural  V2O3F
_chemical_formula_sum  V0O5F5
_cell_volume  313.82526075788275
_cell_formula_units_Z  5
loop_
  _symmetry_equiv_pos_site_id
 _symmetry_equiv_pos_as_xyz
 1  'x, y, z'
loop_
 _atom_site_type_symbol
 _atom_site_label
 _atom_site_symmetry_multiplicity
 _atom_site_fract_x
 _atom_site_fract_y
 _atom_site_fract_z
 _atom_site_fract_occupancy
 F  F1  1  0.20441  0.79559  0.00000  1
 F  F2  1  0.79364  0.20636  0.40036  1
 F  F3  1  0.79364  0.20636  0.59964  1
 F  F4  1  0.20375  0.79625  0.79988  1
 F  F5  1  0.20375  0.79625  0.20012  1
 O  O1  1  0.30263  0.29384  0.89963  1
 O  O2  1  0.80340  0.19660  0.80086  1
 O  O3  1  0.80073  0.19927  0.00000  1
 O  O4  1  0.80340  0.19660  0.19914  1
 O  O5  1  0.30005  0.30156  0.69989  1
 O  O6  1  0.30005  0.30156  0.30011  1
 O  O7  1  0.30263  0.29384  0.10037  1
 O  O8  1  0.29152  0.30421  0.50000  1
 O  O9  1  0.69844  0.69995  0.69989  1
 O  O10  1  0.69844  0.69995  0.30011  1
 O  O11  1  0.70616  0.69737  0.10037  1
 O  O12  1  0.19565  0.80435  0.59929  1
 O  O13  1  0.19565  0.80435  0.40071  1
 O  O14  1  0.69579  0.70848  0.50000  1
 O  O15  1  0.70616  0.69737  0.89963  1
 V  V1  1  0.98168  0.01832  0.90053  1
 V  V2  1  0.01953  0.98047  0.50000  1
 V  V3  1  0.99821  0.00179  0.69989  1
 V  V4  1  0.98168  0.01832  0.09947  1
 V  V5  1  0.52864  0.47136  0.80051  1
 V  V6  1  0.47056  0.52944  0.59929  1
 V  V7  1  0.52864  0.47136  0.19949  1
 V  V8  1  0.52243  0.47757  0.00000  1
 V  V9  1  0.47056  0.52944  0.40071  1
 V  V10  1  0.99821  0.00179  0.30011  1
