CIF file written using JARVIS-Tools package.
data_Li4Nb3Ni3Te2O16
_symmetry_space_group_name_H-M  'Cm'
_cell_length_a       6.07613
_cell_length_b       6.07613
_cell_length_c       10.3801
_cell_angle_alpha    89.0968
_cell_angle_beta     89.0968
_cell_angle_gamma    59.8528

_symmetry_Int_Tables_number  8
_chemical_formula_structural  Li4Nb3Ni3Te2O16
_chemical_formula_sum  Li4Nb3Ni3Te2O6
_cell_volume  331.3363602968978
_cell_formula_units_Z  1
loop_
  _symmetry_equiv_pos_site_id
 _symmetry_equiv_pos_as_xyz
 1  'x, y, z'
loop_
 _atom_site_type_symbol
 _atom_site_label
 _atom_site_symmetry_multiplicity
 _atom_site_fract_x
 _atom_site_fract_y
 _atom_site_fract_z
 _atom_site_fract_occupancy
 Li  Li1  1  0.66522  0.66522  0.90102  1
 Li  Li2  1  0.99410  0.99410  0.98174  1
 Li  Li3  1  0.99401  0.99401  0.50106  1
 Li  Li4  1  0.33539  0.33539  0.40641  1
 Nb  Nb1  1  0.84302  0.34398  0.21949  1
 Nb  Nb2  1  0.34398  0.84302  0.21949  1
 Nb  Nb3  1  0.18145  0.18145  0.73126  1
 Ni  Ni1  1  0.82894  0.82894  0.21072  1
 Ni  Ni2  1  0.16775  0.65712  0.71572  1
 Ni  Ni3  1  0.65712  0.16775  0.71572  1
 O  O1  1  0.83580  0.33131  0.60349  1
 O  O2  1  0.48410  0.48410  0.84714  1
 O  O3  1  0.66192  0.66192  0.10165  1
 O  O4  1  0.99444  0.99444  0.31443  1
 O  O5  1  0.00298  0.00298  0.80051  1
 O  O6  1  0.33131  0.83580  0.60349  1
 O  O7  1  0.50760  0.50760  0.32185  1
 O  O8  1  0.48242  0.99551  0.32316  1
 O  O9  1  0.68529  0.18004  0.08895  1
 O  O10  1  0.48173  0.01346  0.83551  1
 O  O11  1  0.01346  0.48173  0.83551  1
 O  O12  1  0.32417  0.32417  0.60236  1
 O  O13  1  0.99551  0.48242  0.32316  1
 O  O14  1  0.14434  0.14434  0.10097  1
 O  O15  1  0.83416  0.83416  0.60359  1
 O  O16  1  0.18004  0.68529  0.08895  1
 Te  Te1  1  0.35996  0.35996  0.99165  1
 Te  Te2  1  0.67069  0.67069  0.51851  1
