CIF file written using JARVIS-Tools package.
data_SrEr2S4
_symmetry_space_group_name_H-M  'Pnma'
_cell_length_a       3.95027
_cell_length_b       11.9441
_cell_length_c       14.2267
_cell_angle_alpha    90
_cell_angle_beta     90
_cell_angle_gamma    90

_symmetry_Int_Tables_number  62
_chemical_formula_structural  SrEr2S4
_chemical_formula_sum  Sr4Er8S6
_cell_volume  671.2515308760667
_cell_formula_units_Z  4
loop_
  _symmetry_equiv_pos_site_id
 _symmetry_equiv_pos_as_xyz
 1  'x, y, z'
loop_
 _atom_site_type_symbol
 _atom_site_label
 _atom_site_symmetry_multiplicity
 _atom_site_fract_x
 _atom_site_fract_y
 _atom_site_fract_z
 _atom_site_fract_occupancy
 Er  Er1  1  0.75000  0.56642  0.61001  1
 Er  Er2  1  0.75000  0.08126  0.39983  1
 Er  Er3  1  0.75000  0.58126  0.10017  1
 Er  Er4  1  0.25000  0.41874  0.89983  1
 Er  Er5  1  0.25000  0.91874  0.60017  1
 Er  Er6  1  0.75000  0.06642  0.88999  1
 Er  Er7  1  0.25000  0.93358  0.11001  1
 Er  Er8  1  0.25000  0.43358  0.38999  1
 S  S1  1  0.25000  0.62948  0.97261  1
 S  S2  1  0.25000  0.12948  0.52739  1
 S  S3  1  0.75000  0.29314  0.32780  1
 S  S4  1  0.25000  0.91308  0.92195  1
 S  S5  1  0.75000  0.79314  0.17220  1
 S  S6  1  0.75000  0.58692  0.42195  1
 S  S7  1  0.25000  0.20686  0.82780  1
 S  S8  1  0.25000  0.70686  0.67220  1
 S  S9  1  0.75000  0.37052  0.02739  1
 S  S10  1  0.75000  0.08692  0.07805  1
 S  S11  1  0.75000  0.97625  0.71606  1
 S  S12  1  0.75000  0.47625  0.78394  1
 S  S13  1  0.25000  0.41308  0.57805  1
 S  S14  1  0.75000  0.87052  0.47261  1
 S  S15  1  0.25000  0.02375  0.28394  1
 S  S16  1  0.25000  0.52375  0.21606  1
 Sr  Sr1  1  0.75000  0.74170  0.83718  1
 Sr  Sr2  1  0.75000  0.24170  0.66282  1
 Sr  Sr3  1  0.25000  0.25830  0.16282  1
 Sr  Sr4  1  0.25000  0.75830  0.33718  1
