CIF file written using JARVIS-Tools package.
data_Mn6C
_symmetry_space_group_name_H-M  'Fd-3m'
_cell_length_a       7.3576
_cell_length_b       7.35761
_cell_length_c       7.3576
_cell_angle_alpha    60
_cell_angle_beta     60
_cell_angle_gamma    60

_symmetry_Int_Tables_number  227
_chemical_formula_structural  Mn6C
_chemical_formula_sum  Mn24C4
_cell_volume  281.6399747402195
_cell_formula_units_Z  4
loop_
  _symmetry_equiv_pos_site_id
 _symmetry_equiv_pos_as_xyz
 1  'x, y, z'
loop_
 _atom_site_type_symbol
 _atom_site_label
 _atom_site_symmetry_multiplicity
 _atom_site_fract_x
 _atom_site_fract_y
 _atom_site_fract_z
 _atom_site_fract_occupancy
 C  C1  1  0.12500  0.12500  0.12500  1
 C  C2  1  0.12500  0.12500  0.62500  1
 C  C3  1  0.62500  0.12500  0.12500  1
 C  C4  1  0.12500  0.62500  0.12500  1
 Mn  Mn1  1  0.83530  0.83530  0.83530  1
 Mn  Mn2  1  0.62500  0.12500  0.62500  1
 Mn  Mn3  1  0.12500  0.62500  0.62500  1
 Mn  Mn4  1  0.62500  0.62500  0.62500  1
 Mn  Mn5  1  0.41470  0.41470  0.75591  1
 Mn  Mn6  1  0.41470  0.75591  0.41470  1
 Mn  Mn7  1  0.75591  0.41470  0.41470  1
 Mn  Mn8  1  0.41470  0.41470  0.41470  1
 Mn  Mn9  1  0.83530  0.83530  0.49409  1
 Mn  Mn10  1  0.83530  0.49409  0.83530  1
 Mn  Mn11  1  0.62500  0.62500  0.12500  1
 Mn  Mn12  1  0.05124  0.05124  0.44876  1
 Mn  Mn13  1  0.05124  0.44876  0.44876  1
 Mn  Mn14  1  0.44876  0.44876  0.05124  1
 Mn  Mn15  1  0.05124  0.44876  0.05124  1
 Mn  Mn16  1  0.44876  0.05124  0.05124  1
 Mn  Mn17  1  0.19876  0.19876  0.80124  1
 Mn  Mn18  1  0.80124  0.19876  0.80124  1
 Mn  Mn19  1  0.19876  0.80124  0.80124  1
 Mn  Mn20  1  0.80124  0.80124  0.19876  1
 Mn  Mn21  1  0.19876  0.80124  0.19876  1
 Mn  Mn22  1  0.80124  0.19876  0.19876  1
 Mn  Mn23  1  0.44876  0.05124  0.44876  1
 Mn  Mn24  1  0.49409  0.83530  0.83530  1
