CIF file written using JARVIS-Tools package.
data_Li2Co4O7F
_symmetry_space_group_name_H-M  'Cm'
_cell_length_a       5.66997
_cell_length_b       5.66997
_cell_length_c       5.66698
_cell_angle_alpha    60.4679
_cell_angle_beta     60.468
_cell_angle_gamma    60.1662

_symmetry_Int_Tables_number  8
_chemical_formula_structural  Li2Co4O7F
_chemical_formula_sum  Li2Co4O7F
_cell_volume  129.89279987796093
_cell_formula_units_Z  1
loop_
  _symmetry_equiv_pos_site_id
 _symmetry_equiv_pos_as_xyz
 1  'x, y, z'
loop_
 _atom_site_type_symbol
 _atom_site_label
 _atom_site_symmetry_multiplicity
 _atom_site_fract_x
 _atom_site_fract_y
 _atom_site_fract_z
 _atom_site_fract_occupancy
 Co  Co1  1  0.11462  0.11462  0.13433  1
 Co  Co2  1  0.49298  0.00300  0.49212  1
 Co  Co3  1  0.00300  0.49298  0.49212  1
 Co  Co4  1  0.50167  0.50167  0.50605  1
 F  F1  1  0.74683  0.74683  0.73925  1
 Li  Li1  1  0.50018  0.50018  -0.00350  1
 Li  Li2  1  0.88391  0.88391  0.86734  1
 O  O1  1  0.73714  0.73714  0.28701  1
 O  O2  1  0.75258  0.29054  0.71363  1
 O  O3  1  0.29054  0.75258  0.71363  1
 O  O4  1  0.71724  0.24802  0.28291  1
 O  O5  1  0.25073  0.25073  0.27185  1
 O  O6  1  0.24802  0.71724  0.28291  1
 O  O7  1  0.25997  0.25997  0.72090  1
