CIF file written using JARVIS-Tools package.
data_Fe2OF3
_symmetry_space_group_name_H-M  'C2/m'
_cell_length_a       4.75673
_cell_length_b       6.1023
_cell_length_c       10.1359
_cell_angle_alpha    107.536
_cell_angle_beta     93.1513
_cell_angle_gamma    90.0064

_symmetry_Int_Tables_number  12
_chemical_formula_structural  Fe2OF3
_chemical_formula_sum  Fe8O4F2
_cell_volume  280.0736491610579
_cell_formula_units_Z  4
loop_
  _symmetry_equiv_pos_site_id
 _symmetry_equiv_pos_as_xyz
 1  'x, y, z'
loop_
 _atom_site_type_symbol
 _atom_site_label
 _atom_site_symmetry_multiplicity
 _atom_site_fract_x
 _atom_site_fract_y
 _atom_site_fract_z
 _atom_site_fract_occupancy
 F  F1  1  0.78738  0.80087  0.09564  1
 F  F2  1  0.79562  0.54513  0.59581  1
 F  F3  1  0.72399  0.67983  0.35919  1
 F  F4  1  0.72201  0.92317  0.84645  1
 F  F5  1  0.27601  0.32017  0.64081  1
 F  F6  1  0.27799  0.07683  0.15355  1
 F  F7  1  0.21262  0.19913  0.90436  1
 F  F8  1  0.21261  0.70547  0.90442  1
 F  F9  1  0.20438  0.45487  0.40419  1
 F  F10  1  0.20464  0.94941  0.40412  1
 F  F11  1  0.79536  0.05059  0.59588  1
 F  F12  1  0.78739  0.29453  0.09558  1
 Fe  Fe1  1  0.49635  0.86355  0.24952  1
 Fe  Fe2  1  0.03838  0.76119  0.52214  1
 Fe  Fe3  1  0.00000  0.00000  0.00000  1
 Fe  Fe4  1  0.96162  0.23881  0.47786  1
 Fe  Fe5  1  -0.00000  0.50000  0.00000  1
 Fe  Fe6  1  0.49635  0.38623  0.24954  1
 Fe  Fe7  1  0.50365  0.13645  0.75048  1
 Fe  Fe8  1  0.50365  0.61377  0.75046  1
 O  O1  1  0.68246  0.16793  0.33563  1
 O  O2  1  0.70667  0.42320  0.84678  1
 O  O3  1  0.29333  0.57680  0.15322  1
 O  O4  1  0.31754  0.83207  0.66437  1
