CIF file written using JARVIS-Tools package.
data_V3Fe2O8
_symmetry_space_group_name_H-M  'P6_3mc'
_cell_length_a       5.63684
_cell_length_b       5.63684
_cell_length_c       9.08421
_cell_angle_alpha    90
_cell_angle_beta     90
_cell_angle_gamma    120

_symmetry_Int_Tables_number  186
_chemical_formula_structural  V3Fe2O8
_chemical_formula_sum  V6Fe4O6
_cell_volume  249.9706548942612
_cell_formula_units_Z  2
loop_
  _symmetry_equiv_pos_site_id
 _symmetry_equiv_pos_as_xyz
 1  'x, y, z'
loop_
 _atom_site_type_symbol
 _atom_site_label
 _atom_site_symmetry_multiplicity
 _atom_site_fract_x
 _atom_site_fract_y
 _atom_site_fract_z
 _atom_site_fract_occupancy
 Fe  Fe1  1  0.33333  0.66667  0.87164  1
 Fe  Fe2  1  0.66667  0.33333  0.37164  1
 Fe  Fe3  1  0.66667  0.33333  0.95218  1
 Fe  Fe4  1  0.33333  0.66667  0.45218  1
 O  O1  1  0.00000  0.00000  0.00802  1
 O  O2  1  0.51348  0.02695  0.50834  1
 O  O3  1  0.51348  0.48652  0.50834  1
 O  O4  1  0.66667  0.33333  0.75263  1
 O  O5  1  0.97305  0.48652  0.50834  1
 O  O6  1  0.48652  0.51348  0.00834  1
 O  O7  1  0.02695  0.51348  0.00834  1
 O  O8  1  0.48652  0.97305  0.00834  1
 O  O9  1  0.17411  0.82589  0.75429  1
 O  O10  1  0.65178  0.82589  0.75429  1
 O  O11  1  0.33333  0.66667  0.25263  1
 O  O12  1  0.34822  0.17411  0.25429  1
 O  O13  1  0.17411  0.34822  0.75429  1
 O  O14  1  0.00000  0.00000  0.50802  1
 O  O15  1  0.82589  0.65178  0.25429  1
 O  O16  1  0.82589  0.17411  0.25429  1
 V  V1  1  0.69934  0.84967  0.14542  1
 V  V2  1  0.15033  0.84967  0.14542  1
 V  V3  1  0.30066  0.15033  0.64542  1
 V  V4  1  0.15033  0.30066  0.14542  1
 V  V5  1  0.84967  0.15033  0.64542  1
 V  V6  1  0.84967  0.69934  0.64542  1
