CIF file written using JARVIS-Tools package.
data_Rb3MnBr5
_symmetry_space_group_name_H-M  'I4/mcm'
_cell_length_a       9.91594
_cell_length_b       9.91595
_cell_length_c       9.91594
_cell_angle_alpha    125.394
_cell_angle_beta     125.394
_cell_angle_gamma    80.8859

_symmetry_Int_Tables_number  140
_chemical_formula_structural  Rb3MnBr5
_chemical_formula_sum  Rb6Mn2Br0
_cell_volume  624.4855621786998
_cell_formula_units_Z  2
loop_
  _symmetry_equiv_pos_site_id
 _symmetry_equiv_pos_as_xyz
 1  'x, y, z'
loop_
 _atom_site_type_symbol
 _atom_site_label
 _atom_site_symmetry_multiplicity
 _atom_site_fract_x
 _atom_site_fract_y
 _atom_site_fract_z
 _atom_site_fract_occupancy
 Br  Br1  1  -0.00247  0.80326  0.50000  1
 Br  Br2  1  0.00000  0.00000  0.00000  1
 Br  Br3  1  0.19674  0.69674  0.19426  1
 Br  Br4  1  0.49753  -0.00247  0.19426  1
 Br  Br5  1  0.80326  0.30326  0.80574  1
 Br  Br6  1  0.00247  0.19674  0.50000  1
 Br  Br7  1  0.50247  0.00247  0.80574  1
 Br  Br8  1  0.69674  0.50247  0.50000  1
 Br  Br9  1  0.50000  0.50000  0.00000  1
 Br  Br10  1  0.30326  0.49753  0.50000  1
 Mn  Mn1  1  0.25000  0.75000  0.50000  1
 Mn  Mn2  1  0.75000  0.25000  0.50000  1
 Rb  Rb1  1  0.34570  0.15430  0.50000  1
 Rb  Rb2  1  0.65430  0.84570  0.50000  1
 Rb  Rb3  1  0.84570  0.34570  0.19140  1
 Rb  Rb4  1  0.15430  0.65430  0.80860  1
 Rb  Rb5  1  0.75000  0.75000  0.00000  1
 Rb  Rb6  1  0.25000  0.25000  0.00000  1
