CIF file written using JARVIS-Tools package.
data_V4OF11
_symmetry_space_group_name_H-M  'P2'
_cell_length_a       5.0071
_cell_length_b       7.24479
_cell_length_c       5.35665
_cell_angle_alpha    95.5344
_cell_angle_beta     90
_cell_angle_gamma    89.9999

_symmetry_Int_Tables_number  3
_chemical_formula_structural  V4OF11
_chemical_formula_sum  V4OF
_cell_volume  193.40846970253523
_cell_formula_units_Z  1
loop_
  _symmetry_equiv_pos_site_id
 _symmetry_equiv_pos_as_xyz
 1  'x, y, z'
loop_
 _atom_site_type_symbol
 _atom_site_label
 _atom_site_symmetry_multiplicity
 _atom_site_fract_x
 _atom_site_fract_y
 _atom_site_fract_z
 _atom_site_fract_occupancy
 F  F1  1  0.86923  0.25000  0.00000  1
 F  F2  1  0.81829  0.56315  0.31557  1
 F  F3  1  0.81829  0.93685  0.68443  1
 F  F4  1  0.68669  0.93343  0.18375  1
 F  F5  1  0.68669  0.56657  0.81625  1
 F  F6  1  0.38566  0.75000  0.50000  1
 F  F7  1  0.31489  0.43684  0.18246  1
 F  F8  1  0.31489  0.06316  0.81754  1
 F  F9  1  0.17966  0.05841  0.31694  1
 F  F10  1  0.17966  0.44159  0.68306  1
 F  F11  1  0.13097  0.75000  -0.00000  1
 O  O1  1  0.59374  0.25000  0.50000  1
 V  V1  1  0.50913  0.48759  0.50002  1
 V  V2  1  0.50913  0.01241  0.49998  1
 V  V3  1  0.00153  0.50078  0.99982  1
 V  V4  1  0.00153  -0.00078  0.00018  1
