CIF file written using JARVIS-Tools package.
data_La5CrPb3
_symmetry_space_group_name_H-M  'P6_3/mcm'
_cell_length_a       9.84973
_cell_length_b       9.84972
_cell_length_c       6.84755
_cell_angle_alpha    90
_cell_angle_beta     90
_cell_angle_gamma    120

_symmetry_Int_Tables_number  193
_chemical_formula_structural  La5CrPb3
_chemical_formula_sum  La0Cr2Pb6
_cell_volume  575.3264750208007
_cell_formula_units_Z  2
loop_
  _symmetry_equiv_pos_site_id
 _symmetry_equiv_pos_as_xyz
 1  'x, y, z'
loop_
 _atom_site_type_symbol
 _atom_site_label
 _atom_site_symmetry_multiplicity
 _atom_site_fract_x
 _atom_site_fract_y
 _atom_site_fract_z
 _atom_site_fract_occupancy
 Cr  Cr1  1  0.00000  0.00000  0.50000  1
 Cr  Cr2  1  0.00000  0.00000  0.00000  1
 La  La1  1  0.73087  0.73087  0.75000  1
 La  La2  1  0.73087  -0.00000  0.25000  1
 La  La3  1  0.00000  0.26913  0.75000  1
 La  La4  1  0.26913  0.26913  0.25000  1
 La  La5  1  0.26913  0.00000  0.75000  1
 La  La6  1  -0.00000  0.73087  0.25000  1
 La  La7  1  0.66667  0.33333  0.00000  1
 La  La8  1  0.33333  0.66667  0.00000  1
 La  La9  1  0.66667  0.33333  0.50000  1
 La  La10  1  0.33333  0.66667  0.50000  1
 Pb  Pb1  1  0.62118  0.62118  0.25000  1
 Pb  Pb2  1  0.37882  -0.00000  0.25000  1
 Pb  Pb3  1  0.37882  0.37882  0.75000  1
 Pb  Pb4  1  0.62118  0.00000  0.75000  1
 Pb  Pb5  1  0.00000  0.62118  0.75000  1
 Pb  Pb6  1  -0.00000  0.37882  0.25000  1
