CIF file written using JARVIS-Tools package.
data_Mg16ScAl12
_symmetry_space_group_name_H-M  'Cm'
_cell_length_a       9.12755
_cell_length_b       9.12755
_cell_length_c       8.96286
_cell_angle_alpha    70.9173
_cell_angle_beta     70.9173
_cell_angle_gamma    109.589

_symmetry_Int_Tables_number  8
_chemical_formula_structural  Mg16ScAl12
_chemical_formula_sum  Mg6ScAl2
_cell_volume  579.4393668544366
_cell_formula_units_Z  1
loop_
  _symmetry_equiv_pos_site_id
 _symmetry_equiv_pos_as_xyz
 1  'x, y, z'
loop_
 _atom_site_type_symbol
 _atom_site_label
 _atom_site_symmetry_multiplicity
 _atom_site_fract_x
 _atom_site_fract_y
 _atom_site_fract_z
 _atom_site_fract_occupancy
 Al  Al1  1  0.63271  0.81237  0.99736  1
 Al  Al2  1  0.81027  0.99559  0.37290  1
 Al  Al3  1  0.37292  0.37292  0.81549  1
 Al  Al4  1  0.81237  0.63271  0.99736  1
 Al  Al5  1  0.99559  0.81027  0.37290  1
 Al  Al6  1  0.18412  0.18412  0.18087  1
 Al  Al7  1  0.18474  0.82222  0.81143  1
 Al  Al8  1  0.00060  0.63413  0.18151  1
 Al  Al9  1  0.63413  0.00060  0.18151  1
 Al  Al10  1  0.82222  0.18474  0.81143  1
 Al  Al11  1  0.17923  0.36500  0.63362  1
 Al  Al12  1  0.36500  0.17923  0.63362  1
 Mg  Mg1  1  0.33546  0.99629  0.00775  1
 Mg  Mg2  1  0.39966  0.39966  0.28166  1
 Mg  Mg3  1  -0.00053  -0.00053  0.00253  1
 Mg  Mg4  1  0.60543  0.31439  0.99696  1
 Mg  Mg5  1  0.71441  0.39886  0.60405  1
 Mg  Mg6  1  0.31896  0.00055  0.39365  1
 Mg  Mg7  1  0.39886  0.71441  0.60405  1
 Mg  Mg8  1  0.68424  0.29023  0.31560  1
 Mg  Mg9  1  0.00187  0.59964  0.68520  1
 Mg  Mg10  1  0.59964  0.00187  0.68520  1
 Mg  Mg11  1  0.29023  0.68424  0.31560  1
 Mg  Mg12  1  0.99629  0.33546  0.00775  1
 Mg  Mg13  1  0.00055  0.31896  0.39365  1
 Mg  Mg14  1  0.31439  0.60543  0.99696  1
 Mg  Mg15  1  0.65677  0.65677  0.34890  1
 Mg  Mg16  1  0.00489  0.00489  0.64981  1
 Sc  Sc1  1  0.68484  0.68484  0.72065  1
