CIF file written using JARVIS-Tools package.
data_K2RbEuV2O8
_symmetry_space_group_name_H-M  'P-3m1'
_cell_length_a       6.02391
_cell_length_b       6.02391
_cell_length_c       7.65932
_cell_angle_alpha    90
_cell_angle_beta     90
_cell_angle_gamma    120

_symmetry_Int_Tables_number  164
_chemical_formula_structural  K2RbEuV2O8
_chemical_formula_sum  K2RbEuV2O8
_cell_volume  240.70093911318034
_cell_formula_units_Z  1
loop_
  _symmetry_equiv_pos_site_id
 _symmetry_equiv_pos_as_xyz
 1  'x, y, z'
loop_
 _atom_site_type_symbol
 _atom_site_label
 _atom_site_symmetry_multiplicity
 _atom_site_fract_x
 _atom_site_fract_y
 _atom_site_fract_z
 _atom_site_fract_occupancy
 Eu  Eu1  1  0.00000  0.00000  0.50000  1
 K  K1  1  0.33333  0.66667  0.68238  1
 K  K2  1  0.66667  0.33333  0.31762  1
 O  O1  1  0.33333  0.66667  0.01766  1
 O  O2  1  0.66667  0.33333  0.98234  1
 O  O3  1  0.17659  0.82341  0.31813  1
 O  O4  1  0.82341  0.17659  0.68187  1
 O  O5  1  0.17659  0.35318  0.31813  1
 O  O6  1  0.82341  0.64682  0.68187  1
 O  O7  1  0.64682  0.82341  0.31813  1
 O  O8  1  0.35318  0.17659  0.68187  1
 Rb  Rb1  1  0.00000  0.00000  0.00000  1
 V  V1  1  0.33333  0.66667  0.23646  1
 V  V2  1  0.66667  0.33333  0.76354  1
