CIF file written using JARVIS-Tools package.
data_LiMn2B2O6
_symmetry_space_group_name_H-M  'C2/c'
_cell_length_a       5.15049
_cell_length_b       5.1504
_cell_length_c       10.4064
_cell_angle_alpha    91.4674
_cell_angle_beta     88.5343
_cell_angle_gamma    61.5918

_symmetry_Int_Tables_number  15
_chemical_formula_structural  LiMn2B2O6
_chemical_formula_sum  Li2Mn4B4O2
_cell_volume  242.50510153619183
_cell_formula_units_Z  2
loop_
  _symmetry_equiv_pos_site_id
 _symmetry_equiv_pos_as_xyz
 1  'x, y, z'
loop_
 _atom_site_type_symbol
 _atom_site_label
 _atom_site_symmetry_multiplicity
 _atom_site_fract_x
 _atom_site_fract_y
 _atom_site_fract_z
 _atom_site_fract_occupancy
 B  B1  1  0.00443  0.36146  0.87723  1
 B  B2  1  0.63854  0.99556  0.37722  1
 B  B3  1  0.32906  0.03650  0.63466  1
 B  B4  1  0.96351  0.67094  0.13466  1
 Li  Li1  1  0.51368  0.54553  0.25579  1
 Li  Li2  1  0.45444  0.48634  0.75581  1
 Mn  Mn1  1  0.95177  0.71496  0.62553  1
 Mn  Mn2  1  0.01575  0.31717  0.38646  1
 Mn  Mn3  1  0.28505  0.04822  0.12553  1
 Mn  Mn4  1  0.68283  0.98426  0.88646  1
 O  O1  1  0.66777  0.24066  0.37057  1
 O  O2  1  0.71848  0.86190  0.06732  1
 O  O3  1  0.24926  0.17069  0.94472  1
 O  O4  1  0.82928  0.75074  0.44472  1
 O  O5  1  0.13813  0.28151  0.56731  1
 O  O6  1  0.29994  0.79131  0.64109  1
 O  O7  1  0.56134  0.05865  0.69609  1
 O  O8  1  0.94136  0.43866  0.19609  1
 O  O9  1  0.20871  0.70004  0.14108  1
 O  O10  1  0.02670  0.59370  0.81581  1
 O  O11  1  0.40629  0.97330  0.31580  1
 O  O12  1  0.75932  0.33224  0.87059  1
