CIF file written using JARVIS-Tools package.
data_MgO
_symmetry_space_group_name_H-M  'Ibam'
_cell_length_a       8.13945
_cell_length_b       8.13946
_cell_length_c       8.13945
_cell_angle_alpha    150.195
_cell_angle_beta     135.883
_cell_angle_gamma    54.1512

_symmetry_Int_Tables_number  72
_chemical_formula_structural  MgO
_chemical_formula_sum  Mg8O8
_cell_volume  185.49328609429728
_cell_formula_units_Z  8
loop_
  _symmetry_equiv_pos_site_id
 _symmetry_equiv_pos_as_xyz
 1  'x, y, z'
loop_
 _atom_site_type_symbol
 _atom_site_label
 _atom_site_symmetry_multiplicity
 _atom_site_fract_x
 _atom_site_fract_y
 _atom_site_fract_z
 _atom_site_fract_occupancy
 Mg  Mg1  1  0.73805  0.07047  0.66758  1
 Mg  Mg2  1  0.26195  0.92953  0.33242  1
 Mg  Mg3  1  0.59711  0.42953  0.16758  1
 Mg  Mg4  1  0.40289  0.57047  0.83242  1
 Mg  Mg5  1  0.02517  0.68982  0.33535  1
 Mg  Mg6  1  0.97483  0.31018  0.66465  1
 Mg  Mg7  1  0.64554  0.81018  0.83535  1
 Mg  Mg8  1  0.35446  0.18982  0.16465  1
 O  O1  1  0.02462  0.19013  0.83449  1
 O  O2  1  0.97538  0.80987  0.16551  1
 O  O3  1  0.64437  0.30987  0.33449  1
 O  O4  1  0.35563  0.69013  0.66551  1
 O  O5  1  0.74182  0.57044  0.17137  1
 O  O6  1  0.25818  0.42956  0.82863  1
 O  O7  1  0.60093  0.92956  0.67137  1
 O  O8  1  0.39907  0.07044  0.32863  1
