CIF file written using JARVIS-Tools package.
data_TmSiPd2
_symmetry_space_group_name_H-M  'Pnma'
_cell_length_a       5.49387
_cell_length_b       6.97984
_cell_length_c       7.24033
_cell_angle_alpha    90
_cell_angle_beta     90
_cell_angle_gamma    90

_symmetry_Int_Tables_number  62
_chemical_formula_structural  TmSiPd2
_chemical_formula_sum  Tm4Si4Pd8
_cell_volume  277.640093754455
_cell_formula_units_Z  4
loop_
  _symmetry_equiv_pos_site_id
 _symmetry_equiv_pos_as_xyz
 1  'x, y, z'
loop_
 _atom_site_type_symbol
 _atom_site_label
 _atom_site_symmetry_multiplicity
 _atom_site_fract_x
 _atom_site_fract_y
 _atom_site_fract_z
 _atom_site_fract_occupancy
 Pd  Pd1  1  0.90810  0.55065  0.18111  1
 Pd  Pd2  1  0.59190  0.94935  0.68111  1
 Pd  Pd3  1  0.09190  0.05065  0.81889  1
 Pd  Pd4  1  0.40810  0.44935  0.31889  1
 Pd  Pd5  1  0.09190  0.44935  0.81889  1
 Pd  Pd6  1  0.40810  0.05065  0.31889  1
 Pd  Pd7  1  0.90810  0.94935  0.18111  1
 Pd  Pd8  1  0.59190  0.55065  0.68111  1
 Si  Si1  1  0.64143  0.75000  0.37950  1
 Si  Si2  1  0.85857  0.75000  0.87950  1
 Si  Si3  1  0.35857  0.25000  0.62050  1
 Si  Si4  1  0.14143  0.25000  0.12050  1
 Tm  Tm1  1  0.35867  0.75000  0.02700  1
 Tm  Tm2  1  0.14133  0.75000  0.52700  1
 Tm  Tm3  1  0.64133  0.25000  0.97300  1
 Tm  Tm4  1  0.85867  0.25000  0.47300  1
