CIF file written using JARVIS-Tools package.
data_Y2TiSnO7
_symmetry_space_group_name_H-M  'Imma'
_cell_length_a       7.28742
_cell_length_b       7.28741
_cell_length_c       7.28742
_cell_angle_alpha    120.245
_cell_angle_beta     119.829
_cell_angle_gamma    89.9364

_symmetry_Int_Tables_number  74
_chemical_formula_structural  Y2TiSnO7
_chemical_formula_sum  Y4Ti2Sn2O4
_cell_volume  273.49846721096344
_cell_formula_units_Z  2
loop_
  _symmetry_equiv_pos_site_id
 _symmetry_equiv_pos_as_xyz
 1  'x, y, z'
loop_
 _atom_site_type_symbol
 _atom_site_label
 _atom_site_symmetry_multiplicity
 _atom_site_fract_x
 _atom_site_fract_y
 _atom_site_fract_z
 _atom_site_fract_occupancy
 O  O1  1  0.65803  0.32919  0.73803  1
 O  O2  1  0.62322  0.37322  0.25000  1
 O  O3  1  0.37678  0.62678  0.75000  1
 O  O4  1  0.09117  0.92000  0.76197  1
 O  O5  1  0.34197  0.67081  0.26197  1
 O  O6  1  0.31875  0.06875  0.25000  1
 O  O7  1  0.34197  0.08000  0.67117  1
 O  O8  1  0.90883  0.08000  0.23803  1
 O  O9  1  0.90413  0.65413  0.25000  1
 O  O10  1  0.65803  0.92000  0.32883  1
 O  O11  1  0.09587  0.34587  0.75000  1
 O  O12  1  0.68125  0.93125  0.75000  1
 O  O13  1  0.09117  0.32919  0.17117  1
 O  O14  1  0.90883  0.67081  0.82883  1
 Sn  Sn1  1  -0.00000  -0.00000  0.50000  1
 Sn  Sn2  1  0.00000  0.50000  -0.00000  1
 Ti  Ti1  1  0.00000  0.00000  0.00000  1
 Ti  Ti2  1  0.50000  -0.00000  0.50000  1
 Y  Y1  1  0.50000  0.50000  0.50000  1
 Y  Y2  1  0.50000  -0.00000  0.00000  1
 Y  Y3  1  0.50000  0.50000  0.00000  1
 Y  Y4  1  0.00000  0.50000  0.50000  1
