CIF file written using JARVIS-Tools package.
data_DyAsS
_symmetry_space_group_name_H-M  'Pnma'
_cell_length_a       3.83216
_cell_length_b       3.85649
_cell_length_c       16.9492
_cell_angle_alpha    90
_cell_angle_beta     90
_cell_angle_gamma    90

_symmetry_Int_Tables_number  62
_chemical_formula_structural  DyAsS
_chemical_formula_sum  Dy4As4S4
_cell_volume  250.48674665451978
_cell_formula_units_Z  4
loop_
  _symmetry_equiv_pos_site_id
 _symmetry_equiv_pos_as_xyz
 1  'x, y, z'
loop_
 _atom_site_type_symbol
 _atom_site_label
 _atom_site_symmetry_multiplicity
 _atom_site_fract_x
 _atom_site_fract_y
 _atom_site_fract_z
 _atom_site_fract_occupancy
 As  As1  1  0.75000  0.77837  0.49877  1
 As  As2  1  0.75000  0.72163  0.99877  1
 As  As3  1  0.25000  0.22163  0.50123  1
 As  As4  1  0.25000  0.27837  0.00123  1
 Dy  Dy1  1  0.25000  0.76302  0.14602  1
 Dy  Dy2  1  0.25000  0.73698  0.64602  1
 Dy  Dy3  1  0.75000  0.23698  0.85398  1
 Dy  Dy4  1  0.75000  0.26302  0.35398  1
 S  S1  1  0.25000  0.76079  0.31293  1
 S  S2  1  0.25000  0.73921  0.81293  1
 S  S3  1  0.75000  0.23921  0.68707  1
 S  S4  1  0.75000  0.26079  0.18707  1
