CIF file written using JARVIS-Tools package.
data_Er5SbAu2
_symmetry_space_group_name_H-M  'I4/mcm'
_cell_length_a       8.54347
_cell_length_b       8.54347
_cell_length_c       8.54348
_cell_angle_alpha    124.383
_cell_angle_beta     124.383
_cell_angle_gamma    82.5619

_symmetry_Int_Tables_number  140
_chemical_formula_structural  Er5SbAu2
_chemical_formula_sum  Er0Sb2Au4
_cell_volume  407.9563627448545
_cell_formula_units_Z  2
loop_
  _symmetry_equiv_pos_site_id
 _symmetry_equiv_pos_as_xyz
 1  'x, y, z'
loop_
 _atom_site_type_symbol
 _atom_site_label
 _atom_site_symmetry_multiplicity
 _atom_site_fract_x
 _atom_site_fract_y
 _atom_site_fract_z
 _atom_site_fract_occupancy
 Au  Au1  1  0.63936  0.13936  0.77873  1
 Au  Au2  1  0.36064  0.86064  0.22127  1
 Au  Au3  1  0.13936  0.36064  0.50000  1
 Au  Au4  1  0.86064  0.63936  0.50000  1
 Er  Er1  1  0.00000  0.00000  0.00000  1
 Er  Er2  1  0.50000  0.50000  0.00000  1
 Er  Er3  1  0.01019  0.51019  0.80770  1
 Er  Er4  1  0.70249  0.20249  0.19230  1
 Er  Er5  1  0.51019  0.70249  0.50000  1
 Er  Er6  1  0.20249  0.01019  0.50000  1
 Er  Er7  1  0.98981  0.48981  0.19230  1
 Er  Er8  1  0.29751  0.79751  0.80770  1
 Er  Er9  1  0.48981  0.29751  0.50000  1
 Er  Er10  1  0.79751  0.98981  0.50000  1
 Sb  Sb1  1  0.75000  0.75000  -0.00000  1
 Sb  Sb2  1  0.25000  0.25000  0.00000  1
