CIF file written using JARVIS-Tools package.
data_LaIr3
_symmetry_space_group_name_H-M  'R-3m'
_cell_length_a       9.45445
_cell_length_b       9.45445
_cell_length_c       9.45446
_cell_angle_alpha    33.3193
_cell_angle_beta     33.3193
_cell_angle_gamma    33.3193

_symmetry_Int_Tables_number  166
_chemical_formula_structural  LaIr3
_chemical_formula_sum  La3Ir9
_cell_volume  227.04355052189624
_cell_formula_units_Z  3
loop_
  _symmetry_equiv_pos_site_id
 _symmetry_equiv_pos_as_xyz
 1  'x, y, z'
loop_
 _atom_site_type_symbol
 _atom_site_label
 _atom_site_symmetry_multiplicity
 _atom_site_fract_x
 _atom_site_fract_y
 _atom_site_fract_z
 _atom_site_fract_occupancy
 Ir  Ir1  1  0.42114  0.91626  0.42114  1
 Ir  Ir2  1  0.42114  0.42114  0.91626  1
 Ir  Ir3  1  0.91626  0.42114  0.42114  1
 Ir  Ir4  1  0.57886  0.08374  0.57886  1
 Ir  Ir5  1  0.57886  0.57886  0.08374  1
 Ir  Ir6  1  0.08374  0.57886  0.57886  1
 Ir  Ir7  1  0.66815  0.66815  0.66815  1
 Ir  Ir8  1  0.33185  0.33185  0.33185  1
 Ir  Ir9  1  0.50000  0.50000  0.50000  1
 La  La1  1  0.86048  0.86048  0.86048  1
 La  La2  1  0.13952  0.13952  0.13952  1
 La  La3  1  0.00000  0.00000  0.00000  1
