CIF file written using JARVIS-Tools package.
data_DyAl3
_symmetry_space_group_name_H-M  'R-3m'
_cell_length_a       7.8876
_cell_length_b       7.8876
_cell_length_c       7.8876
_cell_angle_alpha    46.2934
_cell_angle_beta     46.2935
_cell_angle_gamma    46.2935

_symmetry_Int_Tables_number  166
_chemical_formula_structural  DyAl3
_chemical_formula_sum  Dy3Al9
_cell_volume  234.04896282059963
_cell_formula_units_Z  3
loop_
  _symmetry_equiv_pos_site_id
 _symmetry_equiv_pos_as_xyz
 1  'x, y, z'
loop_
 _atom_site_type_symbol
 _atom_site_label
 _atom_site_symmetry_multiplicity
 _atom_site_fract_x
 _atom_site_fract_y
 _atom_site_fract_z
 _atom_site_fract_occupancy
 Al  Al1  1  0.50000  0.50000  0.00000  1
 Al  Al2  1  0.00000  0.50000  0.50000  1
 Al  Al3  1  0.50000  -0.00000  0.50000  1
 Al  Al4  1  0.70315  0.26346  0.70315  1
 Al  Al5  1  0.70315  0.70315  0.26346  1
 Al  Al6  1  0.26346  0.70315  0.70315  1
 Al  Al7  1  0.29685  0.73654  0.29685  1
 Al  Al8  1  0.29685  0.29685  0.73654  1
 Al  Al9  1  0.73654  0.29685  0.29685  1
 Dy  Dy1  1  0.00000  0.00000  0.00000  1
 Dy  Dy2  1  0.78223  0.78223  0.78223  1
 Dy  Dy3  1  0.21777  0.21777  0.21777  1
