CIF file written using JARVIS-Tools package.
data_Ta2Cr3Si
_symmetry_space_group_name_H-M  'P6_3/mmc'
_cell_length_a       4.8499
_cell_length_b       4.8499
_cell_length_c       8.08703
_cell_angle_alpha    90
_cell_angle_beta     90
_cell_angle_gamma    120

_symmetry_Int_Tables_number  194
_chemical_formula_structural  Ta2Cr3Si
_chemical_formula_sum  Ta4Cr6Si2
_cell_volume  164.73472752172307
_cell_formula_units_Z  2
loop_
  _symmetry_equiv_pos_site_id
 _symmetry_equiv_pos_as_xyz
 1  'x, y, z'
loop_
 _atom_site_type_symbol
 _atom_site_label
 _atom_site_symmetry_multiplicity
 _atom_site_fract_x
 _atom_site_fract_y
 _atom_site_fract_z
 _atom_site_fract_occupancy
 Cr  Cr1  1  0.82761  0.17239  0.25000  1
 Cr  Cr2  1  0.82761  0.65523  0.25000  1
 Cr  Cr3  1  0.34477  0.17239  0.25000  1
 Cr  Cr4  1  0.17239  0.82761  0.75000  1
 Cr  Cr5  1  0.17239  0.34477  0.75000  1
 Cr  Cr6  1  0.65523  0.82761  0.75000  1
 Si  Si1  1  0.00000  0.00000  0.50000  1
 Si  Si2  1  0.00000  0.00000  0.00000  1
 Ta  Ta1  1  0.33333  0.66667  0.43500  1
 Ta  Ta2  1  0.66667  0.33333  0.56500  1
 Ta  Ta3  1  0.66667  0.33333  0.93500  1
 Ta  Ta4  1  0.33333  0.66667  0.06500  1
