CIF file written using JARVIS-Tools package.
data_TiFe2O4
_symmetry_space_group_name_H-M  'Cmc2_1'
_cell_length_a       2.9404
_cell_length_b       5.01909
_cell_length_c       10.3526
_cell_angle_alpha    89.9994
_cell_angle_beta     90.0005
_cell_angle_gamma    107.014

_symmetry_Int_Tables_number  36
_chemical_formula_structural  TiFe2O4
_chemical_formula_sum  Ti2Fe4O8
_cell_volume  146.09751921860584
_cell_formula_units_Z  2
loop_
  _symmetry_equiv_pos_site_id
 _symmetry_equiv_pos_as_xyz
 1  'x, y, z'
loop_
 _atom_site_type_symbol
 _atom_site_label
 _atom_site_symmetry_multiplicity
 _atom_site_fract_x
 _atom_site_fract_y
 _atom_site_fract_z
 _atom_site_fract_occupancy
 Fe  Fe1  1  0.58972  0.18027  0.80245  1
 Fe  Fe2  1  0.86864  0.73838  0.91418  1
 Fe  Fe3  1  0.41026  0.81971  0.30244  1
 Fe  Fe4  1  0.13141  0.26163  0.41417  1
 O  O1  1  0.21765  0.43645  0.88277  1
 O  O2  1  0.78236  0.56354  0.38276  1
 O  O3  1  0.75477  0.51089  0.10351  1
 O  O4  1  0.24522  0.48911  0.60350  1
 O  O5  1  0.49483  0.98866  0.49262  1
 O  O6  1  0.50517  0.01134  0.99264  1
 O  O7  1  0.03511  0.07001  0.23135  1
 O  O8  1  0.96487  0.93000  0.73135  1
 Ti  Ti1  1  0.86710  0.73330  0.57313  1
 Ti  Ti2  1  0.13289  0.26671  0.07313  1
