CIF file written using JARVIS-Tools package.
data_Tm5Ga3
_symmetry_space_group_name_H-M  'P6_3/mcm'
_cell_length_a       8.42776
_cell_length_b       8.42776
_cell_length_c       6.3729
_cell_angle_alpha    90
_cell_angle_beta     90
_cell_angle_gamma    120

_symmetry_Int_Tables_number  193
_chemical_formula_structural  Tm5Ga3
_chemical_formula_sum  Tm0Ga6
_cell_volume  392.0051979094489
_cell_formula_units_Z  2
loop_
  _symmetry_equiv_pos_site_id
 _symmetry_equiv_pos_as_xyz
 1  'x, y, z'
loop_
 _atom_site_type_symbol
 _atom_site_label
 _atom_site_symmetry_multiplicity
 _atom_site_fract_x
 _atom_site_fract_y
 _atom_site_fract_z
 _atom_site_fract_occupancy
 Ga  Ga1  1  0.40060  0.40060  0.75000  1
 Ga  Ga2  1  0.59940  -0.00000  0.75000  1
 Ga  Ga3  1  -0.00000  0.59940  0.75000  1
 Ga  Ga4  1  0.59940  0.59940  0.25000  1
 Ga  Ga5  1  0.40060  0.00000  0.25000  1
 Ga  Ga6  1  0.00000  0.40060  0.25000  1
 Tm  Tm1  1  0.66667  0.33333  0.00000  1
 Tm  Tm2  1  0.33333  0.66667  0.00000  1
 Tm  Tm3  1  0.33333  0.66667  0.50000  1
 Tm  Tm4  1  0.66667  0.33333  0.50000  1
 Tm  Tm5  1  0.75769  0.75769  0.75000  1
 Tm  Tm6  1  0.24231  0.00000  0.75000  1
 Tm  Tm7  1  0.00000  0.24231  0.75000  1
 Tm  Tm8  1  0.24231  0.24231  0.25000  1
 Tm  Tm9  1  0.75769  -0.00000  0.25000  1
 Tm  Tm10  1  -0.00000  0.75769  0.25000  1
