CIF file written using JARVIS-Tools package.
data_Sr2O2F
_symmetry_space_group_name_H-M  'I4/mmm'
_cell_length_a       6.8738
_cell_length_b       6.8738
_cell_length_c       6.8738
_cell_angle_alpha    147.352
_cell_angle_beta     147.352
_cell_angle_gamma    46.8421

_symmetry_Int_Tables_number  139
_chemical_formula_structural  Sr2O2F
_chemical_formula_sum  Sr2O2F
_cell_volume  94.17110459377612
_cell_formula_units_Z  1
loop_
  _symmetry_equiv_pos_site_id
 _symmetry_equiv_pos_as_xyz
 1  'x, y, z'
loop_
 _atom_site_type_symbol
 _atom_site_label
 _atom_site_symmetry_multiplicity
 _atom_site_fract_x
 _atom_site_fract_y
 _atom_site_fract_z
 _atom_site_fract_occupancy
 F  F1  1  0.50000  0.50000  -0.00000  1
 O  O1  1  0.25000  0.75000  0.50000  1
 O  O2  1  0.75000  0.25000  0.50000  1
 Sr  Sr1  1  0.85941  0.85941  0.00000  1
 Sr  Sr2  1  0.14059  0.14059  -0.00000  1
