CIF file written using JARVIS-Tools package.
data_Dy2Si5Rh3
_symmetry_space_group_name_H-M  'C2/c'
_cell_length_a       8.11248
_cell_length_b       8.11247
_cell_length_c       5.72021
_cell_angle_alpha    70.8685
_cell_angle_beta     70.8686
_cell_angle_gamma    93.2174

_symmetry_Int_Tables_number  15
_chemical_formula_structural  Dy2Si5Rh3
_chemical_formula_sum  Dy4Si0Rh6
_cell_volume  330.3357337576398
_cell_formula_units_Z  2
loop_
  _symmetry_equiv_pos_site_id
 _symmetry_equiv_pos_as_xyz
 1  'x, y, z'
loop_
 _atom_site_type_symbol
 _atom_site_label
 _atom_site_symmetry_multiplicity
 _atom_site_fract_x
 _atom_site_fract_y
 _atom_site_fract_z
 _atom_site_fract_occupancy
 Dy  Dy1  1  0.86637  0.59871  0.76279  1
 Dy  Dy2  1  0.40129  0.13363  0.73721  1
 Dy  Dy3  1  0.13363  0.40129  0.23721  1
 Dy  Dy4  1  0.59871  0.86637  0.26279  1
 Rh  Rh1  1  0.74196  0.46188  0.37548  1
 Rh  Rh2  1  0.46188  0.74196  0.87548  1
 Rh  Rh3  1  0.25804  0.53812  0.62452  1
 Rh  Rh4  1  0.00212  0.99788  0.75000  1
 Rh  Rh5  1  0.53812  0.25804  0.12452  1
 Rh  Rh6  1  0.99788  0.00212  0.25000  1
 Si  Si1  1  0.94215  0.73450  0.16228  1
 Si  Si2  1  0.73450  0.94215  0.66228  1
 Si  Si3  1  0.05785  0.26550  0.83772  1
 Si  Si4  1  0.21152  0.78848  0.75000  1
 Si  Si5  1  0.51077  0.48923  0.75000  1
 Si  Si6  1  0.48923  0.51077  0.25000  1
 Si  Si7  1  0.77574  0.22426  0.75000  1
 Si  Si8  1  0.22426  0.77574  0.25000  1
 Si  Si9  1  0.78848  0.21152  0.25000  1
 Si  Si10  1  0.26550  0.05785  0.33772  1
