CIF file written using JARVIS-Tools package.
data_TaVSi4
_symmetry_space_group_name_H-M  'P2'
_cell_length_a       12.9971
_cell_length_b       4.70631
_cell_length_c       4.72856
_cell_angle_alpha    60.4036
_cell_angle_beta     90
_cell_angle_gamma    90

_symmetry_Int_Tables_number  3
_chemical_formula_structural  TaVSi4
_chemical_formula_sum  Ta3V3Si2
_cell_volume  251.49976671289494
_cell_formula_units_Z  3
loop_
  _symmetry_equiv_pos_site_id
 _symmetry_equiv_pos_as_xyz
 1  'x, y, z'
loop_
 _atom_site_type_symbol
 _atom_site_label
 _atom_site_symmetry_multiplicity
 _atom_site_fract_x
 _atom_site_fract_y
 _atom_site_fract_z
 _atom_site_fract_occupancy
 Si  Si1  1  0.58482  0.16393  0.16272  1
 Si  Si2  1  0.07823  0.83480  0.84512  1
 Si  Si3  1  0.58482  0.83607  0.83728  1
 Si  Si4  1  0.41802  0.15704  0.68435  1
 Si  Si5  1  0.75336  0.32071  0.84719  1
 Si  Si6  1  0.25349  0.32400  0.84366  1
 Si  Si7  1  0.91207  0.84402  0.32509  1
 Si  Si8  1  0.07823  0.16520  0.15488  1
 Si  Si9  1  0.91207  0.15598  0.67491  1
 Si  Si10  1  0.25349  0.67600  0.15634  1
 Si  Si11  1  0.75336  0.67929  0.15281  1
 Si  Si12  1  0.41802  0.84296  0.31565  1
 Ta  Ta1  1  0.24852  0.00000  0.50000  1
 Ta  Ta2  1  0.58557  0.50000  0.50000  1
 Ta  Ta3  1  0.08253  0.50000  0.50000  1
 V  V1  1  0.91573  0.50000  -0.00000  1
 V  V2  1  0.41875  0.50000  -0.00000  1
 V  V3  1  0.74893  0.00000  0.50000  1
