CIF file written using JARVIS-Tools package.
data_La2H5
_symmetry_space_group_name_H-M  'I4_1/amd'
_cell_length_a       6.89711
_cell_length_b       6.89711
_cell_length_c       6.89711
_cell_angle_alpha    132.283
_cell_angle_beta     132.283
_cell_angle_gamma    69.7818

_symmetry_Int_Tables_number  141
_chemical_formula_structural  La2H5
_chemical_formula_sum  La4H0
_cell_volume  176.11261923637196
_cell_formula_units_Z  2
loop_
  _symmetry_equiv_pos_site_id
 _symmetry_equiv_pos_as_xyz
 1  'x, y, z'
loop_
 _atom_site_type_symbol
 _atom_site_label
 _atom_site_symmetry_multiplicity
 _atom_site_fract_x
 _atom_site_fract_y
 _atom_site_fract_z
 _atom_site_fract_occupancy
 H  H1  1  0.60522  0.62500  0.48022  1
 H  H2  1  0.14478  0.12500  0.51978  1
 H  H3  1  0.60522  0.12500  0.98022  1
 H  H4  1  0.14478  0.62500  0.01978  1
 H  H5  1  0.37500  0.39478  0.51978  1
 H  H6  1  0.87500  0.85522  0.48022  1
 H  H7  1  0.87500  0.39478  0.01978  1
 H  H8  1  0.37500  0.85522  0.98022  1
 H  H9  1  0.75000  0.25000  0.50000  1
 H  H10  1  0.00000  0.00000  0.00000  1
 La  La1  1  0.50457  0.00457  0.50000  1
 La  La2  1  0.24543  0.24543  -0.00000  1
 La  La3  1  0.99543  0.49543  0.50000  1
 La  La4  1  0.75457  0.75457  -0.00000  1
