CIF file written using JARVIS-Tools package.
data_KCu2S2O10
_symmetry_space_group_name_H-M  'C2/m'
_cell_length_a       5.33226
_cell_length_b       5.33225
_cell_length_c       8.2453
_cell_angle_alpha    67.8971
_cell_angle_beta     67.8971
_cell_angle_gamma    68.5531

_symmetry_Int_Tables_number  12
_chemical_formula_structural  KCu2S2O10
_chemical_formula_sum  KCu2S2O0
_cell_volume  194.27039480329458
_cell_formula_units_Z  1
loop_
  _symmetry_equiv_pos_site_id
 _symmetry_equiv_pos_as_xyz
 1  'x, y, z'
loop_
 _atom_site_type_symbol
 _atom_site_label
 _atom_site_symmetry_multiplicity
 _atom_site_fract_x
 _atom_site_fract_y
 _atom_site_fract_z
 _atom_site_fract_occupancy
 Cu  Cu1  1  -0.00000  0.50000  0.00000  1
 Cu  Cu2  1  0.50000  -0.00000  0.00000  1
 K  K1  1  0.50000  0.50000  0.50000  1
 O  O1  1  0.16274  0.16274  0.82643  1
 O  O2  1  0.83726  0.83726  0.17357  1
 O  O3  1  0.16665  0.16665  0.52801  1
 O  O4  1  0.83335  0.83335  0.47199  1
 O  O5  1  0.74298  0.15739  0.77309  1
 O  O6  1  0.15739  0.74298  0.77309  1
 O  O7  1  0.25702  0.84261  0.22691  1
 O  O8  1  0.84261  0.25702  0.22691  1
 O  O9  1  0.33876  0.33876  0.04316  1
 O  O10  1  0.66124  0.66124  0.95684  1
 S  S1  1  0.06277  0.06277  0.72445  1
 S  S2  1  0.93723  0.93723  0.27555  1
