CIF file written using JARVIS-Tools package.
data_Fe3PbS2O14
_symmetry_space_group_name_H-M  'R-3m'
_cell_length_a       6.92169
_cell_length_b       6.92169
_cell_length_c       6.92169
_cell_angle_alpha    58.7313
_cell_angle_beta     58.7313
_cell_angle_gamma    58.7313

_symmetry_Int_Tables_number  166
_chemical_formula_structural  Fe3PbS2O14
_chemical_formula_sum  Fe3PbS2O4
_cell_volume  227.69140636664255
_cell_formula_units_Z  1
loop_
  _symmetry_equiv_pos_site_id
 _symmetry_equiv_pos_as_xyz
 1  'x, y, z'
loop_
 _atom_site_type_symbol
 _atom_site_label
 _atom_site_symmetry_multiplicity
 _atom_site_fract_x
 _atom_site_fract_y
 _atom_site_fract_z
 _atom_site_fract_occupancy
 Fe  Fe1  1  0.00000  -0.00000  0.50000  1
 Fe  Fe2  1  0.50000  -0.00000  -0.00000  1
 Fe  Fe3  1  -0.00000  0.50000  -0.00000  1
 O  O1  1  0.60840  0.60840  0.60840  1
 O  O2  1  0.39160  0.39160  0.39160  1
 O  O3  1  0.84376  0.48235  0.84376  1
 O  O4  1  0.26586  0.26586  0.89241  1
 O  O5  1  0.48235  0.84376  0.84376  1
 O  O6  1  0.84376  0.84376  0.48235  1
 O  O7  1  0.15624  0.15624  0.51765  1
 O  O8  1  0.73414  0.10759  0.73414  1
 O  O9  1  0.15624  0.51765  0.15624  1
 O  O10  1  0.73414  0.73414  0.10759  1
 O  O11  1  0.10759  0.73414  0.73414  1
 O  O12  1  0.26586  0.89241  0.26586  1
 O  O13  1  0.51765  0.15624  0.15624  1
 O  O14  1  0.89241  0.26586  0.26586  1
 Pb  Pb1  1  0.00000  0.00000  0.00000  1
 S  S1  1  0.30843  0.30843  0.30843  1
 S  S2  1  0.69157  0.69157  0.69157  1
