CIF file written using JARVIS-Tools package.
data_SrCaMn2O6
_symmetry_space_group_name_H-M  'Cmmm'
_cell_length_a       6.56555
_cell_length_b       6.56557
_cell_length_c       6.56556
_cell_angle_alpha    69.1839
_cell_angle_beta     72.0874
_cell_angle_gamma    109.698

_symmetry_Int_Tables_number  65
_chemical_formula_structural  SrCaMn2O6
_chemical_formula_sum  Sr2Ca2Mn4O2
_cell_volume  217.72658749614837
_cell_formula_units_Z  2
loop_
  _symmetry_equiv_pos_site_id
 _symmetry_equiv_pos_as_xyz
 1  'x, y, z'
loop_
 _atom_site_type_symbol
 _atom_site_label
 _atom_site_symmetry_multiplicity
 _atom_site_fract_x
 _atom_site_fract_y
 _atom_site_fract_z
 _atom_site_fract_occupancy
 Ca  Ca1  1  0.49999  0.49998  0.49999  1
 Ca  Ca2  1  -0.00001  0.49998  -0.00001  1
 Mn  Mn1  1  0.50002  -0.00001  0.49998  1
 Mn  Mn2  1  0.00002  0.50000  0.49997  1
 Mn  Mn3  1  0.00002  -0.00001  -0.00002  1
 Mn  Mn4  1  0.50002  0.50000  -0.00003  1
 O  O1  1  0.24999  0.29648  0.95353  1
 O  O2  1  0.74999  0.50000  0.75001  1
 O  O3  1  0.75000  0.70352  0.04648  1
 O  O4  1  0.25000  0.00002  0.75000  1
 O  O5  1  0.74998  -0.00001  0.25002  1
 O  O6  1  0.25001  0.50001  0.25003  1
 O  O7  1  0.24999  0.70352  0.54650  1
 O  O8  1  0.53884  0.78886  0.75002  1
 O  O9  1  0.03885  0.78886  0.25001  1
 O  O10  1  0.46114  0.21115  0.25001  1
 O  O11  1  0.75001  0.29649  0.45351  1
 O  O12  1  -0.03886  0.21115  0.75001  1
 Sr  Sr1  1  0.00000  0.00000  0.50000  1
 Sr  Sr2  1  0.50000  0.00000  -0.00000  1
