CIF file written using JARVIS-Tools package.
data_K3CaP2O8
_symmetry_space_group_name_H-M  'P-3m1'
_cell_length_a       5.72867
_cell_length_b       5.72867
_cell_length_c       7.40407
_cell_angle_alpha    90.0668
_cell_angle_beta     90.0668
_cell_angle_gamma    60.02

_symmetry_Int_Tables_number  164
_chemical_formula_structural  K3CaP2O8
_chemical_formula_sum  K3CaP2O8
_cell_volume  210.4727026289106
_cell_formula_units_Z  1
loop_
  _symmetry_equiv_pos_site_id
 _symmetry_equiv_pos_as_xyz
 1  'x, y, z'
loop_
 _atom_site_type_symbol
 _atom_site_label
 _atom_site_symmetry_multiplicity
 _atom_site_fract_x
 _atom_site_fract_y
 _atom_site_fract_z
 _atom_site_fract_occupancy
 Ca  Ca1  1  -0.00000  0.00000  0.50000  1
 K  K1  1  0.00000  0.00000  0.00000  1
 K  K2  1  0.33340  0.33340  0.68789  1
 K  K3  1  0.66660  0.66660  0.31211  1
 O  O1  1  0.33298  0.33298  0.03384  1
 O  O2  1  0.66702  0.66702  0.96616  1
 O  O3  1  0.18618  0.18618  0.31387  1
 O  O4  1  0.81382  0.81382  0.68613  1
 O  O5  1  0.18625  0.62735  0.31376  1
 O  O6  1  0.62735  0.18625  0.31376  1
 O  O7  1  0.81375  0.37265  0.68624  1
 O  O8  1  0.37265  0.81375  0.68624  1
 P  P1  1  0.33318  0.33318  0.24130  1
 P  P2  1  0.66682  0.66682  0.75870  1
