CIF file written using JARVIS-Tools package.
data_TaOF4
_symmetry_space_group_name_H-M  'I4/m'
_cell_length_a       4.9268
_cell_length_b       4.9268
_cell_length_c       4.9268
_cell_angle_alpha    99.7765
_cell_angle_beta     99.7765
_cell_angle_gamma    131.329

_symmetry_Int_Tables_number  87
_chemical_formula_structural  TaOF4
_chemical_formula_sum  TaOF4
_cell_volume  81.823613584267
_cell_formula_units_Z  1
loop_
  _symmetry_equiv_pos_site_id
 _symmetry_equiv_pos_as_xyz
 1  'x, y, z'
loop_
 _atom_site_type_symbol
 _atom_site_label
 _atom_site_symmetry_multiplicity
 _atom_site_fract_x
 _atom_site_fract_y
 _atom_site_fract_z
 _atom_site_fract_occupancy
 F  F1  1  0.96448  0.34528  0.18924  1
 F  F2  1  0.77524  0.96448  0.61920  1
 F  F3  1  0.34529  0.15604  0.38080  1
 F  F4  1  0.15604  0.77524  0.81076  1
 O  O1  1  0.55999  0.55999  -0.00000  1
 Ta  Ta1  1  0.05986  0.05986  0.00000  1
