CIF file written using JARVIS-Tools package.
data_Sr3Y2FeCu3BiO12
_symmetry_space_group_name_H-M  'Amm2'
_cell_length_a       5.38366
_cell_length_b       5.38278
_cell_length_c       10.301
_cell_angle_alpha    90
_cell_angle_beta     74.8518
_cell_angle_gamma    90

_symmetry_Int_Tables_number  38
_chemical_formula_structural  Sr3Y2FeCu3BiO12
_chemical_formula_sum  Sr3Y2FeCu3BiO2
_cell_volume  288.1408117806724
_cell_formula_units_Z  1
loop_
  _symmetry_equiv_pos_site_id
 _symmetry_equiv_pos_as_xyz
 1  'x, y, z'
loop_
 _atom_site_type_symbol
 _atom_site_label
 _atom_site_symmetry_multiplicity
 _atom_site_fract_x
 _atom_site_fract_y
 _atom_site_fract_z
 _atom_site_fract_occupancy
 Bi  Bi1  1  0.68960  0.50000  0.62080  1
 Cu  Cu1  1  0.58580  0.00000  0.82839  1
 Cu  Cu2  1  0.08547  0.50000  0.82906  1
 Cu  Cu3  1  0.91637  0.50000  0.16726  1
 Fe  Fe1  1  0.40601  0.00000  0.18797  1
 O  O1  1  0.69957  0.00000  0.60086  1
 O  O2  1  0.30871  0.00000  0.38257  1
 O  O3  1  0.82255  0.75209  0.85924  1
 O  O4  1  0.82255  0.24791  0.85924  1
 O  O5  1  0.31821  0.75209  0.85924  1
 O  O6  1  0.31821  0.24791  0.85924  1
 O  O7  1  0.66951  0.75565  0.14850  1
 O  O8  1  0.66951  0.24435  0.14850  1
 O  O9  1  0.79729  0.50000  0.40542  1
 O  O10  1  0.19985  0.50000  0.60031  1
 O  O11  1  0.18199  0.24435  0.14850  1
 O  O12  1  0.18199  0.75565  0.14850  1
 Sr  Sr1  1  0.32214  0.50000  0.35572  1
 Sr  Sr2  1  0.82152  0.00000  0.35696  1
 Sr  Sr3  1  0.17821  0.00000  0.64358  1
 Y  Y1  1  0.00107  0.00000  0.99786  1
 Y  Y2  1  0.50386  0.50000  0.99227  1
