CIF file written using JARVIS-Tools package.
data_Ag3SBr
_symmetry_space_group_name_H-M  'Cmcm'
_cell_length_a       6.76186
_cell_length_b       6.76186
_cell_length_c       9.89712
_cell_angle_alpha    90
_cell_angle_beta     90
_cell_angle_gamma    89.0303

_symmetry_Int_Tables_number  63
_chemical_formula_structural  Ag3SBr
_chemical_formula_sum  Ag2S4Br4
_cell_volume  452.4590070266759
_cell_formula_units_Z  4
loop_
  _symmetry_equiv_pos_site_id
 _symmetry_equiv_pos_as_xyz
 1  'x, y, z'
loop_
 _atom_site_type_symbol
 _atom_site_label
 _atom_site_symmetry_multiplicity
 _atom_site_fract_x
 _atom_site_fract_y
 _atom_site_fract_z
 _atom_site_fract_occupancy
 Ag  Ag1  1  0.55062  -0.00089  0.75000  1
 Ag  Ag2  1  0.79347  0.79347  0.07694  1
 Ag  Ag3  1  0.00089  0.44938  0.25000  1
 Ag  Ag4  1  -0.00089  0.55062  0.75000  1
 Ag  Ag5  1  0.20653  0.20653  -0.07694  1
 Ag  Ag6  1  0.32859  0.67141  0.50000  1
 Ag  Ag7  1  0.44938  0.00089  0.25000  1
 Ag  Ag8  1  0.79347  0.79347  0.42306  1
 Ag  Ag9  1  0.32859  0.67141  0.00000  1
 Ag  Ag10  1  0.67141  0.32859  0.00000  1
 Ag  Ag11  1  0.67141  0.32859  0.50000  1
 Ag  Ag12  1  0.20653  0.20653  0.57694  1
 Br  Br1  1  0.02137  0.02137  0.25000  1
 Br  Br2  1  0.51901  0.51901  0.75000  1
 Br  Br3  1  -0.02137  -0.02137  0.75000  1
 Br  Br4  1  0.48099  0.48099  0.25000  1
 S  S1  1  0.50000  -0.00000  0.00000  1
 S  S2  1  -0.00000  0.50000  0.00000  1
 S  S3  1  0.50000  -0.00000  0.50000  1
 S  S4  1  -0.00000  0.50000  0.50000  1
