CIF file written using JARVIS-Tools package.
data_TlBi2Cl7
_symmetry_space_group_name_H-M  'P-1'
_cell_length_a       6.87894
_cell_length_b       8.76209
_cell_length_c       10.6995
_cell_angle_alpha    75.2881
_cell_angle_beta     71.9244
_cell_angle_gamma    73.2887

_symmetry_Int_Tables_number  2
_chemical_formula_structural  TlBi2Cl7
_chemical_formula_sum  Tl2Bi4Cl4
_cell_volume  577.4911258158257
_cell_formula_units_Z  2
loop_
  _symmetry_equiv_pos_site_id
 _symmetry_equiv_pos_as_xyz
 1  'x, y, z'
loop_
 _atom_site_type_symbol
 _atom_site_label
 _atom_site_symmetry_multiplicity
 _atom_site_fract_x
 _atom_site_fract_y
 _atom_site_fract_z
 _atom_site_fract_occupancy
 Bi  Bi1  1  0.31955  0.12635  0.16684  1
 Bi  Bi2  1  0.68045  0.87365  0.83316  1
 Bi  Bi3  1  0.41686  0.75326  0.53424  1
 Bi  Bi4  1  0.58314  0.24674  0.46576  1
 Cl  Cl1  1  0.26915  0.34662  0.33209  1
 Cl  Cl2  1  0.74404  0.00942  0.01463  1
 Cl  Cl3  1  0.25596  0.99058  0.98537  1
 Cl  Cl4  1  0.90881  0.25385  0.19741  1
 Cl  Cl5  1  0.36220  0.37032  0.97027  1
 Cl  Cl6  1  0.16453  0.85212  0.36630  1
 Cl  Cl7  1  0.09119  0.74615  0.80259  1
 Cl  Cl8  1  0.63780  0.62968  0.02973  1
 Cl  Cl9  1  0.64417  0.95617  0.34946  1
 Cl  Cl10  1  0.83547  0.14788  0.63370  1
 Cl  Cl11  1  0.73085  0.65338  0.66791  1
 Cl  Cl12  1  0.69340  0.55495  0.37302  1
 Cl  Cl13  1  0.30660  0.44505  0.62698  1
 Cl  Cl14  1  0.35583  0.04383  0.65054  1
 Tl  Tl1  1  0.91783  0.33523  0.87065  1
 Tl  Tl2  1  0.08217  0.66477  0.12935  1
