CIF file written using JARVIS-Tools package.
data_W3O10
_symmetry_space_group_name_H-M  'Fmm2'
_cell_length_a       7.45946
_cell_length_b       7.35508
_cell_length_c       5.37881
_cell_angle_alpha    69.7505
_cell_angle_beta     67.6784
_cell_angle_gamma    42.5711

_symmetry_Int_Tables_number  42
_chemical_formula_structural  W3O10
_chemical_formula_sum  W3O0
_cell_volume  183.63959316735261
_cell_formula_units_Z  1
loop_
  _symmetry_equiv_pos_site_id
 _symmetry_equiv_pos_as_xyz
 1  'x, y, z'
loop_
 _atom_site_type_symbol
 _atom_site_label
 _atom_site_symmetry_multiplicity
 _atom_site_fract_x
 _atom_site_fract_y
 _atom_site_fract_z
 _atom_site_fract_occupancy
 O  O1  1  0.71832  0.70703  0.29297  1
 O  O2  1  0.29297  0.28168  0.71832  1
 O  O3  1  0.71130  0.07556  0.28044  1
 O  O4  1  0.28044  0.93269  0.71130  1
 O  O5  1  0.06731  0.71956  0.92444  1
 O  O6  1  0.92444  0.28870  0.06731  1
 O  O7  1  0.75757  0.74243  0.75757  1
 O  O8  1  0.25757  0.24243  0.25757  1
 O  O9  1  0.23424  0.76576  0.23424  1
 O  O10  1  0.72422  0.27578  0.72422  1
 W  W1  1  0.52792  0.97208  0.52792  1
 W  W2  1  0.02792  0.47208  0.02792  1
 W  W3  1  0.94578  0.05422  0.94578  1
