CIF file written using JARVIS-Tools package.
data_Th3In5
_symmetry_space_group_name_H-M  'Cmcm'
_cell_length_a       6.61489
_cell_length_b       6.61489
_cell_length_c       10.4106
_cell_angle_alpha    90
_cell_angle_beta     90
_cell_angle_gamma    102.053

_symmetry_Int_Tables_number  63
_chemical_formula_structural  Th3In5
_chemical_formula_sum  Th6In0
_cell_volume  445.4910527957555
_cell_formula_units_Z  2
loop_
  _symmetry_equiv_pos_site_id
 _symmetry_equiv_pos_as_xyz
 1  'x, y, z'
loop_
 _atom_site_type_symbol
 _atom_site_label
 _atom_site_symmetry_multiplicity
 _atom_site_fract_x
 _atom_site_fract_y
 _atom_site_fract_z
 _atom_site_fract_occupancy
 In  In1  1  0.51076  0.51076  0.75000  1
 In  In2  1  0.48924  0.48924  0.25000  1
 In  In3  1  0.80306  0.80306  0.54899  1
 In  In4  1  0.19694  0.19694  0.45101  1
 In  In5  1  0.80306  0.80306  0.95101  1
 In  In6  1  0.19694  0.19694  0.04899  1
 In  In7  1  0.99282  0.57062  0.75000  1
 In  In8  1  0.42938  0.00718  0.25000  1
 In  In9  1  0.00718  0.42938  0.25000  1
 In  In10  1  0.57062  0.99282  0.75000  1
 Th  Th1  1  0.12397  0.12397  0.75000  1
 Th  Th2  1  0.87603  0.87603  0.25000  1
 Th  Th3  1  0.70859  0.29141  0.00000  1
 Th  Th4  1  0.70859  0.29141  0.50000  1
 Th  Th5  1  0.29141  0.70859  0.00000  1
 Th  Th6  1  0.29141  0.70859  0.50000  1
