CIF file written using JARVIS-Tools package.
data_Pr5Sn3
_symmetry_space_group_name_H-M  'P6_3/mcm'
_cell_length_a       9.36106
_cell_length_b       9.36106
_cell_length_c       6.85388
_cell_angle_alpha    90
_cell_angle_beta     90
_cell_angle_gamma    120

_symmetry_Int_Tables_number  193
_chemical_formula_structural  Pr5Sn3
_chemical_formula_sum  Pr0Sn6
_cell_volume  520.1359088057333
_cell_formula_units_Z  2
loop_
  _symmetry_equiv_pos_site_id
 _symmetry_equiv_pos_as_xyz
 1  'x, y, z'
loop_
 _atom_site_type_symbol
 _atom_site_label
 _atom_site_symmetry_multiplicity
 _atom_site_fract_x
 _atom_site_fract_y
 _atom_site_fract_z
 _atom_site_fract_occupancy
 Pr  Pr1  1  0.66667  0.33333  0.50000  1
 Pr  Pr2  1  0.33333  0.66667  0.50000  1
 Pr  Pr3  1  0.33333  0.66667  0.00000  1
 Pr  Pr4  1  0.66667  0.33333  0.00000  1
 Pr  Pr5  1  0.75627  0.75627  0.25000  1
 Pr  Pr6  1  0.24373  -0.00000  0.25000  1
 Pr  Pr7  1  -0.00000  0.24373  0.25000  1
 Pr  Pr8  1  0.24373  0.24373  0.75000  1
 Pr  Pr9  1  0.75627  0.00000  0.75000  1
 Pr  Pr10  1  0.00000  0.75627  0.75000  1
 Sn  Sn1  1  0.39253  0.39253  0.25000  1
 Sn  Sn2  1  0.60747  -0.00000  0.25000  1
 Sn  Sn3  1  -0.00000  0.60747  0.25000  1
 Sn  Sn4  1  0.60747  0.60747  0.75000  1
 Sn  Sn5  1  0.39253  0.00000  0.75000  1
 Sn  Sn6  1  0.00000  0.39253  0.75000  1
