CIF file written using JARVIS-Tools package.
data_Sm2Fe5Co12C
_symmetry_space_group_name_H-M  'C2/m'
_cell_length_a       6.3537
_cell_length_b       6.3042
_cell_length_c       6.3537
_cell_angle_alpha    83.7467
_cell_angle_beta     83.412
_cell_angle_gamma    83.7466

_symmetry_Int_Tables_number  12
_chemical_formula_structural  Sm2Fe5Co12C
_chemical_formula_sum  Sm2Fe5Co2C
_cell_volume  250.1117725881025
_cell_formula_units_Z  1
loop_
  _symmetry_equiv_pos_site_id
 _symmetry_equiv_pos_as_xyz
 1  'x, y, z'
loop_
 _atom_site_type_symbol
 _atom_site_label
 _atom_site_symmetry_multiplicity
 _atom_site_fract_x
 _atom_site_fract_y
 _atom_site_fract_z
 _atom_site_fract_occupancy
 C  C1  1  0.50000  -0.00000  0.50000  1
 Co  Co1  1  0.34466  0.85434  0.34466  1
 Co  Co2  1  0.85640  0.34877  0.34272  1
 Co  Co3  1  0.28272  -0.00000  0.71728  1
 Co  Co4  1  0.65534  0.14566  0.65534  1
 Co  Co5  1  0.14360  0.65123  0.65728  1
 Co  Co6  1  0.34272  0.34877  0.85640  1
 Co  Co7  1  0.71728  0.00000  0.28272  1
 Co  Co8  1  0.99975  0.28326  0.71699  1
 Co  Co9  1  0.28301  0.71674  0.00025  1
 Co  Co10  1  0.00025  0.71674  0.28301  1
 Co  Co11  1  0.71699  0.28326  0.99975  1
 Co  Co12  1  0.65728  0.65123  0.14360  1
 Fe  Fe1  1  0.00000  -0.00000  0.50000  1
 Fe  Fe2  1  0.50000  0.00000  0.00000  1
 Fe  Fe3  1  -0.00000  0.50000  -0.00000  1
 Fe  Fe4  1  0.09567  0.09831  0.09567  1
 Fe  Fe5  1  0.90433  0.90169  0.90433  1
 Sm  Sm1  1  0.34012  0.35998  0.34012  1
 Sm  Sm2  1  0.65988  0.64002  0.65988  1
