CIF file written using JARVIS-Tools package.
data_Pr2Zn5Pb
_symmetry_space_group_name_H-M  'Cmcm'
_cell_length_a       8.7019
_cell_length_b       8.7019
_cell_length_c       9.1597
_cell_angle_alpha    90
_cell_angle_beta     90
_cell_angle_gamma    150.05

_symmetry_Int_Tables_number  63
_chemical_formula_structural  Pr2Zn5Pb
_chemical_formula_sum  Pr4Zn0Pb2
_cell_volume  346.27116089492876
_cell_formula_units_Z  2
loop_
  _symmetry_equiv_pos_site_id
 _symmetry_equiv_pos_as_xyz
 1  'x, y, z'
loop_
 _atom_site_type_symbol
 _atom_site_label
 _atom_site_symmetry_multiplicity
 _atom_site_fract_x
 _atom_site_fract_y
 _atom_site_fract_z
 _atom_site_fract_occupancy
 Pb  Pb1  1  0.55373  0.44627  0.25000  1
 Pb  Pb2  1  0.44627  0.55373  0.75000  1
 Pr  Pr1  1  0.20524  0.79476  0.25000  1
 Pr  Pr2  1  0.79476  0.20524  0.75000  1
 Pr  Pr3  1  0.00000  0.00000  0.50000  1
 Pr  Pr4  1  0.00000  0.00000  0.00000  1
 Zn  Zn1  1  0.81504  0.18496  0.39114  1
 Zn  Zn2  1  0.18496  0.81504  0.60886  1
 Zn  Zn3  1  0.81504  0.18496  0.10886  1
 Zn  Zn4  1  0.18496  0.81504  0.89114  1
 Zn  Zn5  1  0.65908  0.34092  0.48569  1
 Zn  Zn6  1  0.34092  0.65908  0.51431  1
 Zn  Zn7  1  0.65908  0.34092  0.01431  1
 Zn  Zn8  1  0.34092  0.65908  0.98569  1
 Zn  Zn9  1  0.39169  0.60831  0.25000  1
 Zn  Zn10  1  0.60831  0.39169  0.75000  1
