CIF file written using JARVIS-Tools package.
data_TcOF2
_symmetry_space_group_name_H-M  'Immm'
_cell_length_a       5.1418
_cell_length_b       5.1418
_cell_length_c       5.1418
_cell_angle_alpha    148.089
_cell_angle_beta     138.012
_cell_angle_gamma    53.6899

_symmetry_Int_Tables_number  71
_chemical_formula_structural  TcOF2
_chemical_formula_sum  TcOF2
_cell_volume  47.78107551103744
_cell_formula_units_Z  1
loop_
  _symmetry_equiv_pos_site_id
 _symmetry_equiv_pos_as_xyz
 1  'x, y, z'
loop_
 _atom_site_type_symbol
 _atom_site_label
 _atom_site_symmetry_multiplicity
 _atom_site_fract_x
 _atom_site_fract_y
 _atom_site_fract_z
 _atom_site_fract_occupancy
 F  F1  1  0.83776  0.33776  0.50000  1
 F  F2  1  0.16224  0.66224  0.50000  1
 O  O1  1  0.50000  0.00000  0.50000  1
 Tc  Tc1  1  0.00000  0.00000  0.00000  1
