CIF file written using JARVIS-Tools package.
data_Nd3Co
_symmetry_space_group_name_H-M  'Pnma'
_cell_length_a       6.39993
_cell_length_b       7.06453
_cell_length_c       9.84974
_cell_angle_alpha    90
_cell_angle_beta     90
_cell_angle_gamma    90

_symmetry_Int_Tables_number  62
_chemical_formula_structural  Nd3Co
_chemical_formula_sum  Nd2Co4
_cell_volume  445.33146358168375
_cell_formula_units_Z  4
loop_
  _symmetry_equiv_pos_site_id
 _symmetry_equiv_pos_as_xyz
 1  'x, y, z'
loop_
 _atom_site_type_symbol
 _atom_site_label
 _atom_site_symmetry_multiplicity
 _atom_site_fract_x
 _atom_site_fract_y
 _atom_site_fract_z
 _atom_site_fract_occupancy
 Co  Co1  1  0.56222  0.88477  0.25000  1
 Co  Co2  1  0.93778  0.38477  0.25000  1
 Co  Co3  1  0.43778  0.11523  0.75000  1
 Co  Co4  1  0.06222  0.61523  0.75000  1
 Nd  Nd1  1  0.35163  0.54316  0.25000  1
 Nd  Nd2  1  0.14837  0.04316  0.25000  1
 Nd  Nd3  1  0.64837  0.45684  0.75000  1
 Nd  Nd4  1  0.85163  0.95684  0.75000  1
 Nd  Nd5  1  0.82520  0.67218  0.06930  1
 Nd  Nd6  1  0.67480  0.17218  0.43070  1
 Nd  Nd7  1  0.17480  0.32782  0.56930  1
 Nd  Nd8  1  0.32520  0.82782  0.93070  1
 Nd  Nd9  1  0.17480  0.32782  0.93070  1
 Nd  Nd10  1  0.32520  0.82782  0.56930  1
 Nd  Nd11  1  0.82520  0.67218  0.43070  1
 Nd  Nd12  1  0.67480  0.17218  0.06930  1
