CIF file written using JARVIS-Tools package.
data_Mo6PbSe4S4
_symmetry_space_group_name_H-M  'P1'
_cell_length_a       6.69992
_cell_length_b       6.77889
_cell_length_c       6.79908
_cell_angle_alpha    89.5622
_cell_angle_beta     87.1638
_cell_angle_gamma    90.1485

_symmetry_Int_Tables_number  1
_chemical_formula_structural  Mo6PbSe4S4
_chemical_formula_sum  Mo6PbSe4S4
_cell_volume  308.4121347401793
_cell_formula_units_Z  1
loop_
  _symmetry_equiv_pos_site_id
 _symmetry_equiv_pos_as_xyz
 1  'x, y, z'
loop_
 _atom_site_type_symbol
 _atom_site_label
 _atom_site_symmetry_multiplicity
 _atom_site_fract_x
 _atom_site_fract_y
 _atom_site_fract_z
 _atom_site_fract_occupancy
 Mo  Mo1  1  0.56736  0.23531  0.42201  1
 Mo  Mo2  1  0.42146  0.55408  0.24203  1
 Mo  Mo3  1  0.23574  0.41338  0.56930  1
 Mo  Mo4  1  0.43684  0.76040  0.58317  1
 Mo  Mo5  1  0.57648  0.43462  0.76562  1
 Mo  Mo6  1  0.76869  0.57839  0.43611  1
 Pb  Pb1  1  -0.00579  0.04975  0.95826  1
 S  S1  1  0.13233  0.72256  0.39680  1
 S  S2  1  0.38605  0.12173  0.73448  1
 S  S3  1  0.73827  0.38611  0.12588  1
 S  S4  1  0.87006  0.26748  0.61256  1
 Se  Se1  1  0.63098  0.87743  0.24848  1
 Se  Se2  1  0.24065  0.61750  0.89298  1
 Se  Se3  1  0.24262  0.22156  0.25148  1
 Se  Se4  1  0.75827  0.75969  0.76084  1
