CIF file written using JARVIS-Tools package.
data_Tc2O3F
_symmetry_space_group_name_H-M  'Amm2'
_cell_length_a       2.78884
_cell_length_b       4.89836
_cell_length_c       4.89836
_cell_angle_alpha    86.7818
_cell_angle_beta     90
_cell_angle_gamma    90

_symmetry_Int_Tables_number  38
_chemical_formula_structural  Tc2O3F
_chemical_formula_sum  Tc2O3F
_cell_volume  66.80968237222532
_cell_formula_units_Z  1
loop_
  _symmetry_equiv_pos_site_id
 _symmetry_equiv_pos_as_xyz
 1  'x, y, z'
loop_
 _atom_site_type_symbol
 _atom_site_label
 _atom_site_symmetry_multiplicity
 _atom_site_fract_x
 _atom_site_fract_y
 _atom_site_fract_z
 _atom_site_fract_occupancy
 F  F1  1  0.50000  0.78197  0.78197  1
 O  O1  1  0.50000  0.21482  0.21482  1
 O  O2  1  0.00000  0.28605  0.71421  1
 O  O3  1  0.00000  0.71421  0.28605  1
 Tc  Tc1  1  0.00000  0.02087  0.02087  1
 Tc  Tc2  1  0.50000  0.48208  0.48208  1
