CIF file written using JARVIS-Tools package.
data_MoCl6
_symmetry_space_group_name_H-M  'P-3m1'
_cell_length_a       10.4018
_cell_length_b       10.4018
_cell_length_c       5.53076
_cell_angle_alpha    90
_cell_angle_beta     90
_cell_angle_gamma    120

_symmetry_Int_Tables_number  164
_chemical_formula_structural  MoCl6
_chemical_formula_sum  Mo3Cl8
_cell_volume  518.2418234764444
_cell_formula_units_Z  3
loop_
  _symmetry_equiv_pos_site_id
 _symmetry_equiv_pos_as_xyz
 1  'x, y, z'
loop_
 _atom_site_type_symbol
 _atom_site_label
 _atom_site_symmetry_multiplicity
 _atom_site_fract_x
 _atom_site_fract_y
 _atom_site_fract_z
 _atom_site_fract_occupancy
 Cl  Cl1  1  0.22875  0.45750  0.26227  1
 Cl  Cl2  1  0.10460  0.89540  0.75854  1
 Cl  Cl3  1  0.79080  0.89540  0.75854  1
 Cl  Cl4  1  0.10460  0.20920  0.75854  1
 Cl  Cl5  1  0.89540  0.10460  0.24146  1
 Cl  Cl6  1  0.20920  0.10460  0.24146  1
 Cl  Cl7  1  0.89540  0.79080  0.24146  1
 Cl  Cl8  1  0.22875  0.77125  0.26227  1
 Cl  Cl9  1  0.54250  0.77125  0.26227  1
 Cl  Cl10  1  0.87590  0.43795  0.25469  1
 Cl  Cl11  1  0.56205  0.12410  0.25469  1
 Cl  Cl12  1  0.45750  0.22875  0.73773  1
 Cl  Cl13  1  0.77125  0.54250  0.73773  1
 Cl  Cl14  1  0.43795  0.56205  0.74531  1
 Cl  Cl15  1  0.12410  0.56205  0.74531  1
 Cl  Cl16  1  0.43795  0.87590  0.74531  1
 Cl  Cl17  1  0.56205  0.43795  0.25469  1
 Cl  Cl18  1  0.77125  0.22875  0.73773  1
 Mo  Mo1  1  0.66667  0.33333  0.49632  1
 Mo  Mo2  1  0.33333  0.66667  0.50368  1
 Mo  Mo3  1  0.00000  0.00000  0.00000  1
