CIF file written using JARVIS-Tools package.
data_Na3NpO6
_symmetry_space_group_name_H-M  'R3c'
_cell_length_a       5.75213
_cell_length_b       5.75213
_cell_length_c       10.5467
_cell_angle_alpha    74.2216
_cell_angle_beta     74.2216
_cell_angle_gamma    60.0226

_symmetry_Int_Tables_number  161
_chemical_formula_structural  Na3NpO6
_chemical_formula_sum  Na6Np2O2
_cell_volume  286.9845777694524
_cell_formula_units_Z  2
loop_
  _symmetry_equiv_pos_site_id
 _symmetry_equiv_pos_as_xyz
 1  'x, y, z'
loop_
 _atom_site_type_symbol
 _atom_site_label
 _atom_site_symmetry_multiplicity
 _atom_site_fract_x
 _atom_site_fract_y
 _atom_site_fract_z
 _atom_site_fract_occupancy
 Na  Na1  1  0.73983  0.24004  0.45522  1
 Na  Na2  1  0.24004  0.73983  -0.04478  1
 Na  Na3  1  0.13275  0.63292  0.27636  1
 Na  Na4  1  0.99643  0.49654  0.68571  1
 Na  Na5  1  0.63292  0.13275  0.77636  1
 Na  Na6  1  0.49654  0.99643  0.18571  1
 Np  Np1  1  0.38620  -0.11362  0.51610  1
 Np  Np2  1  -0.11362  0.38620  0.01610  1
 O  O1  1  0.17117  0.21835  0.39914  1
 O  O2  1  0.67112  0.38610  0.89919  1
 O  O3  1  0.21835  0.17117  0.89914  1
 O  O4  1  0.53968  0.60729  0.12457  1
 O  O5  1  0.60729  0.53968  0.62457  1
 O  O6  1  0.38610  0.67112  0.39919  1
 O  O7  1  -0.11385  0.71830  0.89922  1
 O  O8  1  0.10776  0.40348  0.12447  1
 O  O9  1  0.71830  -0.11385  0.39922  1
 O  O10  1  0.03935  0.90375  0.62446  1
 O  O11  1  0.40348  0.10776  0.62447  1
 O  O12  1  0.90375  0.03935  0.12446  1
