CIF file written using JARVIS-Tools package.
data_ZnSiAg2S4
_symmetry_space_group_name_H-M  'Pc'
_cell_length_a       6.5893
_cell_length_b       6.47549
_cell_length_c       10.2035
_cell_angle_alpha    51.0784
_cell_angle_beta     90
_cell_angle_gamma    90

_symmetry_Int_Tables_number  7
_chemical_formula_structural  ZnSiAg2S4
_chemical_formula_sum  Zn2Si2Ag4S8
_cell_volume  338.7211344328879
_cell_formula_units_Z  2
loop_
  _symmetry_equiv_pos_site_id
 _symmetry_equiv_pos_as_xyz
 1  'x, y, z'
loop_
 _atom_site_type_symbol
 _atom_site_label
 _atom_site_symmetry_multiplicity
 _atom_site_fract_x
 _atom_site_fract_y
 _atom_site_fract_z
 _atom_site_fract_occupancy
 Ag  Ag1  1  0.67910  0.08771  0.17437  1
 Ag  Ag2  1  0.32090  0.08771  0.67437  1
 Ag  Ag3  1  0.84863  0.85905  0.91900  1
 Ag  Ag4  1  0.15137  0.85905  0.41900  1
 S  S1  1  0.87286  0.46933  0.91586  1
 S  S2  1  0.12714  0.46933  0.41586  1
 S  S3  1  0.68252  0.26563  0.64850  1
 S  S4  1  0.31748  0.26563  0.14850  1
 S  S5  1  0.80061  0.01148  0.43853  1
 S  S6  1  0.19939  0.01148  0.93853  1
 S  S7  1  0.66091  0.67572  0.20009  1
 S  S8  1  0.33909  0.67572  0.70009  1
 Si  Si1  1  0.81637  0.35568  0.42585  1
 Si  Si2  1  0.18363  0.35568  0.92585  1
 Zn  Zn1  1  0.68619  0.59874  0.67974  1
 Zn  Zn2  1  0.31381  0.59874  0.17974  1
