CIF file written using JARVIS-Tools package.
data_Rb2IO
_symmetry_space_group_name_H-M  'Pnma'
_cell_length_a       5.63299
_cell_length_b       7.96482
_cell_length_c       11.7874
_cell_angle_alpha    90
_cell_angle_beta     90
_cell_angle_gamma    90

_symmetry_Int_Tables_number  62
_chemical_formula_structural  Rb2IO
_chemical_formula_sum  Rb8I4O4
_cell_volume  528.8499347403911
_cell_formula_units_Z  4
loop_
  _symmetry_equiv_pos_site_id
 _symmetry_equiv_pos_as_xyz
 1  'x, y, z'
loop_
 _atom_site_type_symbol
 _atom_site_label
 _atom_site_symmetry_multiplicity
 _atom_site_fract_x
 _atom_site_fract_y
 _atom_site_fract_z
 _atom_site_fract_occupancy
 I  I1  1  0.25000  0.67578  0.61487  1
 I  I2  1  0.25000  0.17578  0.88513  1
 I  I3  1  0.75000  0.32422  0.38513  1
 I  I4  1  0.75000  0.82422  0.11487  1
 O  O1  1  0.25000  0.88899  0.39427  1
 O  O2  1  0.25000  0.38899  0.10573  1
 O  O3  1  0.75000  0.11101  0.60573  1
 O  O4  1  0.75000  0.61101  0.89427  1
 Rb  Rb1  1  0.25000  0.64671  0.93978  1
 Rb  Rb2  1  0.25000  0.14671  0.56022  1
 Rb  Rb3  1  0.75000  0.35329  0.06022  1
 Rb  Rb4  1  0.75000  0.85329  0.43978  1
 Rb  Rb5  1  0.25000  0.58627  0.28352  1
 Rb  Rb6  1  0.25000  0.08627  0.21648  1
 Rb  Rb7  1  0.75000  0.41373  0.71648  1
 Rb  Rb8  1  0.75000  0.91373  0.78352  1
