CIF file written using JARVIS-Tools package.
data_Nb3IrSe8
_symmetry_space_group_name_H-M  'C2/c'
_cell_length_a       6.9947
_cell_length_b       6.9947
_cell_length_c       14.0727
_cell_angle_alpha    67.842
_cell_angle_beta     67.842
_cell_angle_gamma    60.2268

_symmetry_Int_Tables_number  15
_chemical_formula_structural  Nb3IrSe8
_chemical_formula_sum  Nb6Ir2Se6
_cell_volume  537.8337499628838
_cell_formula_units_Z  2
loop_
  _symmetry_equiv_pos_site_id
 _symmetry_equiv_pos_as_xyz
 1  'x, y, z'
loop_
 _atom_site_type_symbol
 _atom_site_label
 _atom_site_symmetry_multiplicity
 _atom_site_fract_x
 _atom_site_fract_y
 _atom_site_fract_z
 _atom_site_fract_occupancy
 Ir  Ir1  1  0.67235  0.32765  0.25000  1
 Ir  Ir2  1  0.32765  0.67235  0.75000  1
 Nb  Nb1  1  0.90823  0.62833  0.74849  1
 Nb  Nb2  1  0.62833  0.90823  0.24849  1
 Nb  Nb3  1  0.89718  0.10282  0.75000  1
 Nb  Nb4  1  0.37167  0.09177  0.75151  1
 Nb  Nb5  1  0.09177  0.37167  0.25151  1
 Nb  Nb6  1  0.10282  0.89718  0.25000  1
 Se  Se1  1  0.10615  0.87518  0.60515  1
 Se  Se2  1  0.41930  0.62695  0.36046  1
 Se  Se3  1  0.12120  0.34926  0.61790  1
 Se  Se4  1  0.65074  0.87880  0.88210  1
 Se  Se5  1  0.84007  0.61129  0.12169  1
 Se  Se6  1  0.38871  0.15993  0.37831  1
 Se  Se7  1  0.58070  0.37305  0.63954  1
 Se  Se8  1  0.87880  0.65074  0.38210  1
 Se  Se9  1  0.15993  0.38871  0.87831  1
 Se  Se10  1  0.89385  0.12482  0.39485  1
 Se  Se11  1  0.61129  0.84007  0.62169  1
 Se  Se12  1  0.12482  0.89385  0.89485  1
 Se  Se13  1  0.34926  0.12120  0.11790  1
 Se  Se14  1  0.37305  0.58070  0.13954  1
 Se  Se15  1  0.87518  0.10615  0.10515  1
 Se  Se16  1  0.62695  0.41930  0.86046  1
