CIF file written using JARVIS-Tools package.
data_Nd2Zn5Sn
_symmetry_space_group_name_H-M  'Cmcm'
_cell_length_a       8.58084
_cell_length_b       8.58084
_cell_length_c       9.06199
_cell_angle_alpha    90
_cell_angle_beta     90
_cell_angle_gamma    149.9

_symmetry_Int_Tables_number  63
_chemical_formula_structural  Nd2Zn5Sn
_chemical_formula_sum  Nd4Zn0Sn2
_cell_volume  334.62718743555564
_cell_formula_units_Z  2
loop_
  _symmetry_equiv_pos_site_id
 _symmetry_equiv_pos_as_xyz
 1  'x, y, z'
loop_
 _atom_site_type_symbol
 _atom_site_label
 _atom_site_symmetry_multiplicity
 _atom_site_fract_x
 _atom_site_fract_y
 _atom_site_fract_z
 _atom_site_fract_occupancy
 Nd  Nd1  1  0.20502  0.79498  0.25000  1
 Nd  Nd2  1  0.79498  0.20502  0.75000  1
 Nd  Nd3  1  0.00000  0.00000  0.50000  1
 Nd  Nd4  1  0.00000  0.00000  0.00000  1
 Sn  Sn1  1  0.55436  0.44564  0.25000  1
 Sn  Sn2  1  0.44564  0.55436  0.75000  1
 Zn  Zn1  1  0.81457  0.18543  0.39174  1
 Zn  Zn2  1  0.18543  0.81457  0.60826  1
 Zn  Zn3  1  0.81457  0.18543  0.10826  1
 Zn  Zn4  1  0.18543  0.81457  0.89174  1
 Zn  Zn5  1  0.65651  0.34349  0.48338  1
 Zn  Zn6  1  0.34349  0.65651  0.51662  1
 Zn  Zn7  1  0.65651  0.34349  0.01662  1
 Zn  Zn8  1  0.34349  0.65651  0.98338  1
 Zn  Zn9  1  0.39447  0.60553  0.25000  1
 Zn  Zn10  1  0.60553  0.39447  0.75000  1
