CIF file written using JARVIS-Tools package.
data_Mg3Fe3P4O16
_symmetry_space_group_name_H-M  'P1'
_cell_length_a       5.13617
_cell_length_b       7.61543
_cell_length_c       8.26227
_cell_angle_alpha    91.0496
_cell_angle_beta     89.8813
_cell_angle_gamma    94.45

_symmetry_Int_Tables_number  1
_chemical_formula_structural  Mg3Fe3P4O16
_chemical_formula_sum  Mg3Fe3P4O6
_cell_volume  322.1433458793464
_cell_formula_units_Z  1
loop_
  _symmetry_equiv_pos_site_id
 _symmetry_equiv_pos_as_xyz
 1  'x, y, z'
loop_
 _atom_site_type_symbol
 _atom_site_label
 _atom_site_symmetry_multiplicity
 _atom_site_fract_x
 _atom_site_fract_y
 _atom_site_fract_z
 _atom_site_fract_occupancy
 Fe  Fe1  1  0.90665  0.39443  0.86575  1
 Fe  Fe2  1  0.59435  0.11422  0.36162  1
 Fe  Fe3  1  0.09035  0.60748  0.13516  1
 Mg  Mg1  1  -0.00074  0.50023  0.50002  1
 Mg  Mg2  1  0.50237  0.99819  0.00019  1
 Mg  Mg3  1  0.40334  0.89160  0.64129  1
 O  O1  1  0.43601  0.14344  0.58181  1
 O  O2  1  0.93861  0.65246  0.92011  1
 O  O3  1  0.80564  0.61467  0.30203  1
 O  O4  1  0.06013  0.34916  0.08010  1
 O  O5  1  0.67663  0.44281  0.63891  1
 O  O6  1  0.18375  0.94464  0.85557  1
 O  O7  1  0.55300  0.85348  0.42516  1
 O  O8  1  0.82616  0.05131  0.13826  1
 O  O9  1  0.05247  0.74446  0.63134  1
 O  O10  1  0.19263  0.38818  0.69999  1
 O  O11  1  0.95525  0.25238  0.36765  1
 O  O12  1  0.32077  0.55506  0.35962  1
 O  O13  1  0.69382  0.88701  0.79796  1
 O  O14  1  0.54931  0.24970  0.86829  1
 O  O15  1  0.44937  0.75250  0.13402  1
 O  O16  1  0.31088  0.11296  0.19623  1
 P  P1  1  0.96124  0.80897  0.80075  1
 P  P2  1  0.45996  0.30730  0.69728  1
 P  P3  1  0.53655  0.69347  0.30493  1
 P  P4  1  0.04151  0.18988  0.19596  1
