CIF file written using JARVIS-Tools package.
data_Tm4Ge6Os7
_symmetry_space_group_name_H-M  'Im-3m'
_cell_length_a       7.21542
_cell_length_b       7.21542
_cell_length_c       7.21542
_cell_angle_alpha    109.471
_cell_angle_beta     109.471
_cell_angle_gamma    109.471

_symmetry_Int_Tables_number  229
_chemical_formula_structural  Tm4Ge6Os7
_chemical_formula_sum  Tm4Ge6Os7
_cell_volume  289.1759635488656
_cell_formula_units_Z  1
loop_
  _symmetry_equiv_pos_site_id
 _symmetry_equiv_pos_as_xyz
 1  'x, y, z'
loop_
 _atom_site_type_symbol
 _atom_site_label
 _atom_site_symmetry_multiplicity
 _atom_site_fract_x
 _atom_site_fract_y
 _atom_site_fract_z
 _atom_site_fract_occupancy
 Ge  Ge1  1  0.69042  0.69042  0.00000  1
 Ge  Ge2  1  0.00000  0.69042  0.69042  1
 Ge  Ge3  1  0.30958  0.30958  0.00000  1
 Ge  Ge4  1  0.69042  0.00000  0.69042  1
 Ge  Ge5  1  0.30958  0.00000  0.30958  1
 Ge  Ge6  1  0.00000  0.30958  0.30958  1
 Os  Os1  1  0.25000  0.50000  0.75000  1
 Os  Os2  1  0.50000  0.25000  0.75000  1
 Os  Os3  1  0.75000  0.50000  0.25000  1
 Os  Os4  1  0.75000  0.25000  0.50000  1
 Os  Os5  1  0.00000  0.00000  0.00000  1
 Os  Os6  1  0.25000  0.75000  0.50000  1
 Os  Os7  1  0.50000  0.75000  0.25000  1
 Tm  Tm1  1  0.50000  0.50000  0.50000  1
 Tm  Tm2  1  0.50000  0.00000  -0.00000  1
 Tm  Tm3  1  0.00000  0.50000  0.00000  1
 Tm  Tm4  1  0.00000  0.00000  0.50000  1
