CIF file written using JARVIS-Tools package.
data_La3GaCuSe7
_symmetry_space_group_name_H-M  'P6_3'
_cell_length_a       10.6983
_cell_length_b       10.6983
_cell_length_c       6.20415
_cell_angle_alpha    90
_cell_angle_beta     90
_cell_angle_gamma    120

_symmetry_Int_Tables_number  173
_chemical_formula_structural  La3GaCuSe7
_chemical_formula_sum  La6Ga2Cu2Se4
_cell_volume  614.958982762959
_cell_formula_units_Z  2
loop_
  _symmetry_equiv_pos_site_id
 _symmetry_equiv_pos_as_xyz
 1  'x, y, z'
loop_
 _atom_site_type_symbol
 _atom_site_label
 _atom_site_symmetry_multiplicity
 _atom_site_fract_x
 _atom_site_fract_y
 _atom_site_fract_z
 _atom_site_fract_occupancy
 Cu  Cu1  1  0.00000  0.00000  0.10805  1
 Cu  Cu2  1  0.00000  0.00000  0.60805  1
 Ga  Ga1  1  0.33333  0.66667  0.49528  1
 Ga  Ga2  1  0.66667  0.33333  0.99528  1
 La  La1  1  0.13987  0.77476  0.08262  1
 La  La2  1  0.22524  0.36511  0.08262  1
 La  La3  1  0.63489  0.86013  0.08262  1
 La  La4  1  0.86013  0.22524  0.58262  1
 La  La5  1  0.77476  0.63489  0.58262  1
 La  La6  1  0.36511  0.13987  0.58262  1
 Se  Se1  1  0.25518  0.09817  0.09647  1
 Se  Se2  1  0.90989  0.48269  0.84856  1
 Se  Se3  1  0.84299  0.74482  0.09647  1
 Se  Se4  1  0.74482  0.90183  0.59647  1
 Se  Se5  1  0.09817  0.84299  0.59647  1
 Se  Se6  1  0.90183  0.15701  0.09647  1
 Se  Se7  1  0.48269  0.57280  0.34856  1
 Se  Se8  1  0.66667  0.33333  0.38097  1
 Se  Se9  1  0.42720  0.90989  0.34856  1
 Se  Se10  1  0.09011  0.51731  0.34856  1
 Se  Se11  1  0.15701  0.25518  0.59647  1
 Se  Se12  1  0.57280  0.09011  0.84856  1
 Se  Se13  1  0.33333  0.66667  0.88097  1
 Se  Se14  1  0.51731  0.42720  0.84856  1
