CIF file written using JARVIS-Tools package.
data_La6MgSi2S14
_symmetry_space_group_name_H-M  'P3'
_cell_length_a       10.3727
_cell_length_b       10.3727
_cell_length_c       5.7684
_cell_angle_alpha    90
_cell_angle_beta     90
_cell_angle_gamma    120

_symmetry_Int_Tables_number  143
_chemical_formula_structural  La6MgSi2S14
_chemical_formula_sum  La6MgSi2S4
_cell_volume  537.4872934619362
_cell_formula_units_Z  1
loop_
  _symmetry_equiv_pos_site_id
 _symmetry_equiv_pos_as_xyz
 1  'x, y, z'
loop_
 _atom_site_type_symbol
 _atom_site_label
 _atom_site_symmetry_multiplicity
 _atom_site_fract_x
 _atom_site_fract_y
 _atom_site_fract_z
 _atom_site_fract_occupancy
 La  La1  1  0.64239  0.76481  0.75462  1
 La  La2  1  0.12241  0.35761  0.75462  1
 La  La3  1  0.23519  0.87759  0.75462  1
 La  La4  1  0.35753  0.23371  0.24579  1
 La  La5  1  0.87617  0.64247  0.24579  1
 La  La6  1  0.76629  0.12383  0.24579  1
 Mg  Mg1  1  0.00000  0.00000  0.51093  1
 S  S1  1  0.33333  0.66667  0.53654  1
 S  S2  1  0.66667  0.33333  0.02766  1
 S  S3  1  0.58964  0.47537  0.52255  1
 S  S4  1  0.08443  0.24481  0.27245  1
 S  S5  1  0.16038  0.91557  0.27245  1
 S  S6  1  0.75519  0.83962  0.27245  1
 S  S7  1  0.91819  0.75568  0.75195  1
 S  S8  1  0.40921  0.52406  0.02962  1
 S  S9  1  0.47594  0.88515  0.02962  1
 S  S10  1  0.24432  0.16252  0.75195  1
 S  S11  1  0.11485  0.59079  0.02962  1
 S  S12  1  0.52463  0.11427  0.52255  1
 S  S13  1  0.83748  0.08181  0.75195  1
 S  S14  1  0.88573  0.41036  0.52255  1
 Si  Si1  1  0.66667  0.33333  0.66161  1
 Si  Si2  1  0.33333  0.66667  0.17139  1
