CIF file written using JARVIS-Tools package.
data_LiLaC2N4
_symmetry_space_group_name_H-M  'P2_1/m'
_cell_length_a       3.76387
_cell_length_b       5.43664
_cell_length_c       10.163
_cell_angle_alpha    79.0208
_cell_angle_beta     90
_cell_angle_gamma    90

_symmetry_Int_Tables_number  11
_chemical_formula_structural  LiLaC2N4
_chemical_formula_sum  Li2La2C4N8
_cell_volume  204.1570317042039
_cell_formula_units_Z  2
loop_
  _symmetry_equiv_pos_site_id
 _symmetry_equiv_pos_as_xyz
 1  'x, y, z'
loop_
 _atom_site_type_symbol
 _atom_site_label
 _atom_site_symmetry_multiplicity
 _atom_site_fract_x
 _atom_site_fract_y
 _atom_site_fract_z
 _atom_site_fract_occupancy
 C  C1  1  0.75000  0.57394  0.10906  1
 C  C2  1  0.25000  0.42606  0.89094  1
 C  C3  1  0.75000  0.77988  0.47293  1
 C  C4  1  0.25000  0.22012  0.52707  1
 La  La1  1  0.25000  0.01753  0.19344  1
 La  La2  1  0.75000  0.98247  0.80656  1
 Li  Li1  1  0.75000  0.40465  0.35381  1
 Li  Li2  1  0.25000  0.59535  0.64619  1
 N  N1  1  0.75000  0.34910  0.15861  1
 N  N2  1  0.25000  0.65090  0.84139  1
 N  N3  1  0.25000  0.19807  0.93455  1
 N  N4  1  0.75000  0.80193  0.06545  1
 N  N5  1  0.25000  0.24463  0.40477  1
 N  N6  1  0.75000  0.75537  0.59523  1
 N  N7  1  0.75000  0.79165  0.34918  1
 N  N8  1  0.25000  0.20835  0.65082  1
