CIF file written using JARVIS-Tools package.
data_KBa2Bi2O9
_symmetry_space_group_name_H-M  'P-3m1'
_cell_length_a       5.92051
_cell_length_b       5.92051
_cell_length_c       7.84342
_cell_angle_alpha    90
_cell_angle_beta     90
_cell_angle_gamma    120

_symmetry_Int_Tables_number  164
_chemical_formula_structural  KBa2Bi2O9
_chemical_formula_sum  KBa2Bi2O9
_cell_volume  238.09700207010303
_cell_formula_units_Z  1
loop_
  _symmetry_equiv_pos_site_id
 _symmetry_equiv_pos_as_xyz
 1  'x, y, z'
loop_
 _atom_site_type_symbol
 _atom_site_label
 _atom_site_symmetry_multiplicity
 _atom_site_fract_x
 _atom_site_fract_y
 _atom_site_fract_z
 _atom_site_fract_occupancy
 Ba  Ba1  1  0.66667  0.33333  0.35464  1
 Ba  Ba2  1  0.33333  0.66667  0.64536  1
 Bi  Bi1  1  0.33333  0.66667  0.15911  1
 Bi  Bi2  1  0.66667  0.33333  0.84089  1
 K  K1  1  0.00000  0.00000  0.00000  1
 O  O1  1  0.50000  0.00000  0.00000  1
 O  O2  1  0.82485  0.64970  0.66733  1
 O  O3  1  0.17515  0.35030  0.33267  1
 O  O4  1  0.82485  0.17515  0.66733  1
 O  O5  1  0.17515  0.82485  0.33267  1
 O  O6  1  0.50000  0.50000  0.00000  1
 O  O7  1  0.64970  0.82485  0.33267  1
 O  O8  1  -0.00000  0.50000  0.00000  1
 O  O9  1  0.35030  0.17515  0.66733  1
