CIF file written using JARVIS-Tools package.
data_Na2OsO4
_symmetry_space_group_name_H-M  'P-62m'
_cell_length_a       9.54143
_cell_length_b       9.54143
_cell_length_c       3.18772
_cell_angle_alpha    90
_cell_angle_beta     90
_cell_angle_gamma    120

_symmetry_Int_Tables_number  189
_chemical_formula_structural  Na2OsO4
_chemical_formula_sum  Na6Os3O2
_cell_volume  251.32589364613233
_cell_formula_units_Z  3
loop_
  _symmetry_equiv_pos_site_id
 _symmetry_equiv_pos_as_xyz
 1  'x, y, z'
loop_
 _atom_site_type_symbol
 _atom_site_label
 _atom_site_symmetry_multiplicity
 _atom_site_fract_x
 _atom_site_fract_y
 _atom_site_fract_z
 _atom_site_fract_occupancy
 Na  Na1  1  0.00000  0.00000  0.00000  1
 Na  Na2  1  0.66667  0.33333  0.50000  1
 Na  Na3  1  0.33333  0.66667  0.50000  1
 Na  Na4  1  0.30550  0.30550  0.50000  1
 Na  Na5  1  0.69450  -0.00000  0.50000  1
 Na  Na6  1  -0.00000  0.69450  0.50000  1
 O  O1  1  0.80822  0.80822  0.50000  1
 O  O2  1  0.78058  0.21466  0.00000  1
 O  O3  1  -0.00000  0.19178  0.50000  1
 O  O4  1  0.54227  0.54227  0.50000  1
 O  O5  1  0.19178  -0.00000  0.50000  1
 O  O6  1  0.00000  0.45773  0.50000  1
 O  O7  1  0.21942  0.43407  0.00000  1
 O  O8  1  0.21466  0.78058  0.00000  1
 O  O9  1  0.45773  0.00000  0.50000  1
 O  O10  1  0.78534  0.56593  0.00000  1
 O  O11  1  0.56593  0.78534  0.00000  1
 O  O12  1  0.43407  0.21942  0.00000  1
 Os  Os1  1  0.00000  0.32921  0.00000  1
 Os  Os2  1  0.32921  0.00000  0.00000  1
 Os  Os3  1  0.67079  0.67079  0.00000  1
