CIF file written using JARVIS-Tools package.
data_Li4MnCo2O7
_symmetry_space_group_name_H-M  'Cm'
_cell_length_a       2.84161
_cell_length_b       9.53177
_cell_length_c       9.49306
_cell_angle_alpha    114.831
_cell_angle_beta     89.9709
_cell_angle_gamma    98.6001

_symmetry_Int_Tables_number  8
_chemical_formula_structural  Li4MnCo2O7
_chemical_formula_sum  Li8Mn2Co4O4
_cell_volume  230.17308457466993
_cell_formula_units_Z  2
loop_
  _symmetry_equiv_pos_site_id
 _symmetry_equiv_pos_as_xyz
 1  'x, y, z'
loop_
 _atom_site_type_symbol
 _atom_site_label
 _atom_site_symmetry_multiplicity
 _atom_site_fract_x
 _atom_site_fract_y
 _atom_site_fract_z
 _atom_site_fract_occupancy
 Co  Co1  1  0.85715  0.71444  0.42915  1
 Co  Co2  1  0.28624  0.57255  0.14226  1
 Co  Co3  1  0.71288  0.42556  0.85094  1
 Co  Co4  1  0.42819  0.85655  0.71368  1
 Li  Li1  1  0.14283  0.28533  0.58014  1
 Li  Li2  1  0.64737  0.29527  0.06776  1
 Li  Li3  1  0.92571  0.85116  0.21875  1
 Li  Li4  1  0.07661  0.15365  0.77876  1
 Li  Li5  1  0.77541  0.55040  0.63763  1
 Li  Li6  1  0.50979  0.01923  0.51422  1
 Li  Li7  1  0.21594  0.43164  0.36079  1
 Li  Li8  1  0.35174  0.70308  0.92696  1
 Mn  Mn1  1  0.99805  0.99609  0.99676  1
 Mn  Mn2  1  0.57534  0.15080  0.29531  1
 O  O1  1  0.24711  0.49364  0.76079  1
 O  O2  1  0.95579  0.91132  0.61053  1
 O  O3  1  0.67206  0.34421  0.44512  1
 O  O4  1  0.38564  0.77103  0.32526  1
 O  O5  1  0.18701  0.37429  0.96328  1
 O  O6  1  0.89911  0.79876  0.81987  1
 O  O7  1  0.03746  0.07542  0.37847  1
 O  O8  1  0.32978  0.66009  0.53511  1
 O  O9  1  0.75822  0.51696  0.24677  1
 O  O10  1  0.46837  0.93712  0.10070  1
 O  O11  1  0.81465  0.62895  0.03866  1
 O  O12  1  0.52982  0.05922  0.89729  1
 O  O13  1  0.61224  0.22449  0.69014  1
 O  O14  1  0.09951  0.19873  0.17489  1
