CIF file written using JARVIS-Tools package.
data_KLaTa2O7
_symmetry_space_group_name_H-M  'Amm2'
_cell_length_a       11.2525
_cell_length_b       11.2525
_cell_length_c       3.90158
_cell_angle_alpha    90
_cell_angle_beta     90
_cell_angle_gamma    159.986

_symmetry_Int_Tables_number  38
_chemical_formula_structural  KLaTa2O7
_chemical_formula_sum  KLaTa2O7
_cell_volume  169.0727919691795
_cell_formula_units_Z  1
loop_
  _symmetry_equiv_pos_site_id
 _symmetry_equiv_pos_as_xyz
 1  'x, y, z'
loop_
 _atom_site_type_symbol
 _atom_site_label
 _atom_site_symmetry_multiplicity
 _atom_site_fract_x
 _atom_site_fract_y
 _atom_site_fract_z
 _atom_site_fract_occupancy
 K  K1  1  0.76717  0.23283  0.00000  1
 La  La1  1  0.00085  0.99915  0.00000  1
 O  O1  1  0.58299  0.41701  0.00000  1
 O  O2  1  0.41566  0.58434  0.00000  1
 O  O3  1  0.68441  0.31559  0.50000  1
 O  O4  1  0.31555  0.68445  0.50000  1
 O  O5  1  0.91553  0.08447  0.50000  1
 O  O6  1  0.08272  0.91728  0.50000  1
 O  O7  1  0.49912  0.50088  0.50000  1
 Ta  Ta1  1  0.60360  0.39640  0.50000  1
 Ta  Ta2  1  0.39740  0.60260  0.50000  1
