CIF file written using JARVIS-Tools package.
data_Li7Mn2Co3O12
_symmetry_space_group_name_H-M  'Cm'
_cell_length_a       6.3377
_cell_length_b       6.3377
_cell_length_c       11.6015
_cell_angle_alpha    76.4957
_cell_angle_beta     76.4958
_cell_angle_gamma    25.9668

_symmetry_Int_Tables_number  8
_chemical_formula_structural  Li7Mn2Co3O12
_chemical_formula_sum  Li7Mn2Co3O2
_cell_volume  198.08922795444286
_cell_formula_units_Z  1
loop_
  _symmetry_equiv_pos_site_id
 _symmetry_equiv_pos_as_xyz
 1  'x, y, z'
loop_
 _atom_site_type_symbol
 _atom_site_label
 _atom_site_symmetry_multiplicity
 _atom_site_fract_x
 _atom_site_fract_y
 _atom_site_fract_z
 _atom_site_fract_occupancy
 Co  Co1  1  -0.00279  -0.00279  0.50203  1
 Co  Co2  1  0.33406  0.33406  0.16852  1
 Co  Co3  1  0.66718  0.66718  0.33378  1
 Li  Li1  1  0.33543  0.33543  0.65599  1
 Li  Li2  1  0.99052  0.99052  0.73470  1
 Li  Li3  1  0.67491  0.67491  0.57815  1
 Li  Li4  1  0.66995  0.66995  0.08938  1
 Li  Li5  1  -0.00324  -0.00324  0.26202  1
 Li  Li6  1  0.33259  0.33259  0.42828  1
 Li  Li7  1  0.33381  0.33381  0.90896  1
 Mn  Mn1  1  -0.00168  -0.00168  0.00313  1
 Mn  Mn2  1  0.67278  0.67278  0.82789  1
 O  O1  1  0.16064  0.16064  0.44522  1
 O  O2  1  0.50357  0.50357  0.60897  1
 O  O3  1  0.82075  0.82075  0.79830  1
 O  O4  1  0.84173  0.84173  0.53663  1
 O  O5  1  0.16136  0.16136  0.72462  1
 O  O6  1  0.17483  0.17483  0.21750  1
 O  O7  1  0.83954  0.83954  0.05218  1
 O  O8  1  0.50794  0.50794  0.38346  1
 O  O9  1  0.49731  0.49731  0.11858  1
 O  O10  1  0.82787  0.82787  0.27936  1
 O  O11  1  0.50211  0.50211  0.88941  1
 O  O12  1  0.15883  0.15883  0.95292  1
