CIF file written using JARVIS-Tools package.
data_Tb3MnB7
_symmetry_space_group_name_H-M  'Cmcm'
_cell_length_a       8.08487
_cell_length_b       8.08488
_cell_length_c       9.32347
_cell_angle_alpha    90
_cell_angle_beta     90
_cell_angle_gamma    155.287

_symmetry_Int_Tables_number  63
_chemical_formula_structural  Tb3MnB7
_chemical_formula_sum  Tb6Mn2B4
_cell_volume  254.78974066437112
_cell_formula_units_Z  2
loop_
  _symmetry_equiv_pos_site_id
 _symmetry_equiv_pos_as_xyz
 1  'x, y, z'
loop_
 _atom_site_type_symbol
 _atom_site_label
 _atom_site_symmetry_multiplicity
 _atom_site_fract_x
 _atom_site_fract_y
 _atom_site_fract_z
 _atom_site_fract_occupancy
 B  B1  1  0.47779  0.52221  0.90095  1
 B  B2  1  0.72715  0.27285  0.46726  1
 B  B3  1  0.27285  0.72715  0.53274  1
 B  B4  1  0.46128  0.53872  0.25000  1
 B  B5  1  0.27285  0.72715  0.96726  1
 B  B6  1  0.62997  0.37003  0.15304  1
 B  B7  1  0.72715  0.27285  0.03274  1
 B  B8  1  0.62997  0.37003  0.34696  1
 B  B9  1  0.37003  0.62997  0.65304  1
 B  B10  1  0.52221  0.47779  0.09905  1
 B  B11  1  0.53872  0.46128  0.75000  1
 B  B12  1  0.52221  0.47779  0.40095  1
 B  B13  1  0.47779  0.52221  0.59905  1
 B  B14  1  0.37003  0.62997  0.84696  1
 Mn  Mn1  1  0.94574  0.05426  0.75000  1
 Mn  Mn2  1  0.05426  0.94574  0.25000  1
 Tb  Tb1  1  0.75909  0.24091  0.75000  1
 Tb  Tb2  1  0.24091  0.75909  0.25000  1
 Tb  Tb3  1  0.10397  0.89603  0.93912  1
 Tb  Tb4  1  0.89603  0.10397  0.06088  1
 Tb  Tb5  1  0.10397  0.89603  0.56088  1
 Tb  Tb6  1  0.89603  0.10397  0.43912  1
