CIF file written using JARVIS-Tools package.
data_Fe10O9F11
_symmetry_space_group_name_H-M  'P1'
_cell_length_a       4.67
_cell_length_b       4.65947
_cell_length_c       15.0995
_cell_angle_alpha    90.1012
_cell_angle_beta     89.4619
_cell_angle_gamma    94.0662

_symmetry_Int_Tables_number  1
_chemical_formula_structural  Fe10O9F11
_chemical_formula_sum  Fe0O9F
_cell_volume  327.71899982619306
_cell_formula_units_Z  1
loop_
  _symmetry_equiv_pos_site_id
 _symmetry_equiv_pos_as_xyz
 1  'x, y, z'
loop_
 _atom_site_type_symbol
 _atom_site_label
 _atom_site_symmetry_multiplicity
 _atom_site_fract_x
 _atom_site_fract_y
 _atom_site_fract_z
 _atom_site_fract_occupancy
 F  F1  1  0.78183  0.22705  0.69914  1
 F  F2  1  0.80651  0.19276  0.29781  1
 F  F3  1  0.79935  0.20096  0.50093  1
 F  F4  1  0.78661  0.20594  0.10195  1
 F  F5  1  0.71657  0.71009  0.79974  1
 F  F6  1  0.70814  0.71971  0.59811  1
 F  F7  1  0.70348  0.70676  0.20692  1
 F  F8  1  0.20845  0.78551  0.89978  1
 F  F9  1  0.20192  0.80530  0.50024  1
 F  F10  1  0.19711  0.79947  0.30000  1
 F  F11  1  0.81558  0.18117  0.89559  1
 Fe  Fe1  1  0.01652  0.96011  0.00596  1
 Fe  Fe2  1  0.45048  0.50757  0.69856  1
 Fe  Fe3  1  0.03398  0.01153  0.19443  1
 Fe  Fe4  1  0.98378  0.98744  0.40176  1
 Fe  Fe5  1  0.02911  0.02154  0.61088  1
 Fe  Fe6  1  0.02782  0.01477  0.79331  1
 Fe  Fe7  1  0.46452  0.50701  0.09318  1
 Fe  Fe8  1  0.48005  0.47954  0.49046  1
 Fe  Fe9  1  0.50324  0.47386  0.90842  1
 Fe  Fe10  1  0.49328  0.48706  0.30393  1
 O  O1  1  0.30727  0.30255  0.80307  1
 O  O2  1  0.19143  0.80229  0.10083  1
 O  O3  1  0.20817  0.81384  0.70577  1
 O  O4  1  0.28107  0.27851  -0.00004  1
 O  O5  1  0.31557  0.31611  0.20549  1
 O  O6  1  0.69085  0.68870  0.39667  1
 O  O7  1  0.30505  0.32618  0.59233  1
 O  O8  1  0.70040  0.69607  0.00033  1
 O  O9  1  0.29182  0.29060  0.39444  1
