CIF file written using JARVIS-Tools package.
data_GaP2
_symmetry_space_group_name_H-M  'C2'
_cell_length_a       4.33318
_cell_length_b       5.55157
_cell_length_c       3.92105
_cell_angle_alpha    66.2631
_cell_angle_beta     84.3162
_cell_angle_gamma    44.6942

_symmetry_Int_Tables_number  5
_chemical_formula_structural  GaP2
_chemical_formula_sum  GaP2
_cell_volume  58.10720366286692
_cell_formula_units_Z  1
loop_
  _symmetry_equiv_pos_site_id
 _symmetry_equiv_pos_as_xyz
 1  'x, y, z'
loop_
 _atom_site_type_symbol
 _atom_site_label
 _atom_site_symmetry_multiplicity
 _atom_site_fract_x
 _atom_site_fract_y
 _atom_site_fract_z
 _atom_site_fract_occupancy
 Ga  Ga1  1  0.84700  0.13725  0.60939  1
 P  P1  1  0.51437  0.14024  0.14699  1
 P  P2  1  0.63914  0.67457  0.61270  1
