CIF file written using JARVIS-Tools package.
data_Li5Ti2Fe3O10
_symmetry_space_group_name_H-M  'P-1'
_cell_length_a       5.08765
_cell_length_b       5.00868
_cell_length_c       7.63107
_cell_angle_alpha    69.7573
_cell_angle_beta     71.3102
_cell_angle_gamma    80.3371

_symmetry_Int_Tables_number  2
_chemical_formula_structural  Li5Ti2Fe3O10
_chemical_formula_sum  Li5Ti2Fe3O0
_cell_volume  172.4710062133221
_cell_formula_units_Z  1
loop_
  _symmetry_equiv_pos_site_id
 _symmetry_equiv_pos_as_xyz
 1  'x, y, z'
loop_
 _atom_site_type_symbol
 _atom_site_label
 _atom_site_symmetry_multiplicity
 _atom_site_fract_x
 _atom_site_fract_y
 _atom_site_fract_z
 _atom_site_fract_occupancy
 Fe  Fe1  1  0.49784  0.00135  0.00143  1
 Fe  Fe2  1  -0.00126  0.30604  0.90185  1
 Fe  Fe3  1  0.99733  0.69696  0.10109  1
 Li  Li1  1  0.47865  0.41718  0.21379  1
 Li  Li2  1  0.50255  0.78368  0.40987  1
 Li  Li3  1  0.99801  0.50148  0.50145  1
 Li  Li4  1  0.51746  0.58570  0.78904  1
 Li  Li5  1  0.49343  0.21935  0.59294  1
 O  O1  1  0.23823  0.36592  0.04652  1
 O  O2  1  0.22810  0.13461  0.45182  1
 O  O3  1  0.22452  0.96168  0.85829  1
 O  O4  1  0.76789  0.86842  0.55105  1
 O  O5  1  0.75793  0.63715  0.95636  1
 O  O6  1  0.22726  0.76554  0.24268  1
 O  O7  1  0.24175  0.55322  0.66126  1
 O  O8  1  0.75427  0.44980  0.34164  1
 O  O9  1  0.76876  0.23737  0.76033  1
 O  O10  1  0.77142  0.04133  0.14456  1
 Ti  Ti1  1  0.00592  0.87612  0.70501  1
 Ti  Ti2  1  0.99010  0.12701  0.29767  1
