CIF file written using JARVIS-Tools package.
data_Ga2P
_symmetry_space_group_name_H-M  'Cmmm'
_cell_length_a       3.78576
_cell_length_b       2.65572
_cell_length_c       5.94754
_cell_angle_alpha    90
_cell_angle_beta     108.559
_cell_angle_gamma    90

_symmetry_Int_Tables_number  65
_chemical_formula_structural  Ga2P
_chemical_formula_sum  Ga2P
_cell_volume  56.68633002032873
_cell_formula_units_Z  1
loop_
  _symmetry_equiv_pos_site_id
 _symmetry_equiv_pos_as_xyz
 1  'x, y, z'
loop_
 _atom_site_type_symbol
 _atom_site_label
 _atom_site_symmetry_multiplicity
 _atom_site_fract_x
 _atom_site_fract_y
 _atom_site_fract_z
 _atom_site_fract_occupancy
 Ga  Ga1  1  -0.18619  0.00000  -0.17238  1
 Ga  Ga2  1  0.11951  0.00000  0.43904  1
 P  P1  1  0.46669  0.00000  0.13333  1
