CIF file written using JARVIS-Tools package.
data_LiNdSn
_symmetry_space_group_name_H-M  'P6_3mc'
_cell_length_a       9.50093
_cell_length_b       9.50093
_cell_length_c       7.67458
_cell_angle_alpha    90
_cell_angle_beta     90
_cell_angle_gamma    120

_symmetry_Int_Tables_number  186
_chemical_formula_structural  LiNdSn
_chemical_formula_sum  Li8Nd8Sn8
_cell_volume  599.9531965241383
_cell_formula_units_Z  8
loop_
  _symmetry_equiv_pos_site_id
 _symmetry_equiv_pos_as_xyz
 1  'x, y, z'
loop_
 _atom_site_type_symbol
 _atom_site_label
 _atom_site_symmetry_multiplicity
 _atom_site_fract_x
 _atom_site_fract_y
 _atom_site_fract_z
 _atom_site_fract_occupancy
 Li  Li1  1  0.16674  0.33348  0.28544  1
 Li  Li2  1  0.16674  0.83326  0.28544  1
 Li  Li3  1  0.66652  0.83326  0.28544  1
 Li  Li4  1  0.83326  0.66652  0.78544  1
 Li  Li5  1  0.83326  0.16674  0.78544  1
 Li  Li6  1  0.33348  0.16674  0.78544  1
 Li  Li7  1  0.33333  0.66667  0.67845  1
 Li  Li8  1  0.66667  0.33333  0.17845  1
 Nd  Nd1  1  0.51076  0.02152  0.49499  1
 Nd  Nd2  1  0.51076  0.48924  0.49499  1
 Nd  Nd3  1  0.97848  0.48924  0.49499  1
 Nd  Nd4  1  0.48924  0.97848  0.99499  1
 Nd  Nd5  1  0.48924  0.51076  0.99499  1
 Nd  Nd6  1  0.02152  0.51076  0.99499  1
 Nd  Nd7  1  0.00000  0.00000  0.49870  1
 Nd  Nd8  1  0.00000  0.00000  -0.00130  1
 Sn  Sn1  1  0.16670  0.33340  0.72985  1
 Sn  Sn2  1  0.16670  0.83330  0.72985  1
 Sn  Sn3  1  0.66660  0.83330  0.72985  1
 Sn  Sn4  1  0.83330  0.66660  0.22985  1
 Sn  Sn5  1  0.83330  0.16670  0.22985  1
 Sn  Sn6  1  0.33340  0.16670  0.22985  1
 Sn  Sn7  1  0.33333  0.66667  0.26300  1
 Sn  Sn8  1  0.66667  0.33333  0.76300  1
