CIF file written using JARVIS-Tools package.
data_La2MgSe4
_symmetry_space_group_name_H-M  'Pnma'
_cell_length_a       4.19069
_cell_length_b       13.734
_cell_length_c       14.6427
_cell_angle_alpha    90
_cell_angle_beta     90
_cell_angle_gamma    90

_symmetry_Int_Tables_number  62
_chemical_formula_structural  La2MgSe4
_chemical_formula_sum  La8Mg4Se6
_cell_volume  842.7560209285671
_cell_formula_units_Z  4
loop_
  _symmetry_equiv_pos_site_id
 _symmetry_equiv_pos_as_xyz
 1  'x, y, z'
loop_
 _atom_site_type_symbol
 _atom_site_label
 _atom_site_symmetry_multiplicity
 _atom_site_fract_x
 _atom_site_fract_y
 _atom_site_fract_z
 _atom_site_fract_occupancy
 La  La1  1  0.25000  0.12297  0.07327  1
 La  La2  1  0.75000  0.87703  0.92673  1
 La  La3  1  0.75000  0.37703  0.57327  1
 La  La4  1  0.25000  0.62297  0.42673  1
 La  La5  1  0.25000  0.13099  0.70647  1
 La  La6  1  0.75000  0.86901  0.29353  1
 La  La7  1  0.75000  0.36901  0.20647  1
 La  La8  1  0.25000  0.63099  0.79353  1
 Mg  Mg1  1  0.75000  0.10593  0.46411  1
 Mg  Mg2  1  0.25000  0.89407  0.53589  1
 Mg  Mg3  1  0.25000  0.39407  0.96411  1
 Mg  Mg4  1  0.75000  0.60593  0.03589  1
 Se  Se1  1  0.75000  0.99852  0.61463  1
 Se  Se2  1  0.25000  0.22954  0.51308  1
 Se  Se3  1  0.25000  0.50148  0.11463  1
 Se  Se4  1  0.75000  0.49852  0.88537  1
 Se  Se5  1  0.25000  0.02496  0.88546  1
 Se  Se6  1  0.75000  0.97504  0.11454  1
 Se  Se7  1  0.25000  0.00148  0.38537  1
 Se  Se8  1  0.75000  0.27046  0.01308  1
 Se  Se9  1  0.25000  0.22954  0.24762  1
 Se  Se10  1  0.75000  0.77046  0.75238  1
 Se  Se11  1  0.75000  0.27046  0.74762  1
 Se  Se12  1  0.25000  0.72954  0.25238  1
 Se  Se13  1  0.75000  0.47504  0.38546  1
 Se  Se14  1  0.25000  0.72954  0.98692  1
 Se  Se15  1  0.25000  0.52496  0.61454  1
 Se  Se16  1  0.75000  0.77046  0.48692  1
