CIF file written using JARVIS-Tools package.
data_CeVO4
_symmetry_space_group_name_H-M  'P2_1/c'
_cell_length_a       7.19795
_cell_length_b       6.6895
_cell_length_c       8.27203
_cell_angle_alpha    54.2841
_cell_angle_beta     90
_cell_angle_gamma    90

_symmetry_Int_Tables_number  14
_chemical_formula_structural  CeVO4
_chemical_formula_sum  Ce4V4O6
_cell_volume  323.39134621372335
_cell_formula_units_Z  4
loop_
  _symmetry_equiv_pos_site_id
 _symmetry_equiv_pos_as_xyz
 1  'x, y, z'
loop_
 _atom_site_type_symbol
 _atom_site_label
 _atom_site_symmetry_multiplicity
 _atom_site_fract_x
 _atom_site_fract_y
 _atom_site_fract_z
 _atom_site_fract_occupancy
 Ce  Ce1  1  0.34584  0.82575  0.77605  1
 Ce  Ce2  1  0.15416  0.82575  0.27605  1
 Ce  Ce3  1  0.65416  0.17425  0.22395  1
 Ce  Ce4  1  0.84584  0.17425  0.72395  1
 O  O1  1  0.50513  0.17488  0.74649  1
 O  O2  1  0.99487  0.17488  0.24649  1
 O  O3  1  0.49487  0.82512  0.25351  1
 O  O4  1  0.72073  0.37785  0.38769  1
 O  O5  1  0.14985  0.11451  0.88889  1
 O  O6  1  0.35015  0.11451  0.38889  1
 O  O7  1  0.00513  0.82512  0.75351  1
 O  O8  1  0.64985  0.88549  0.61111  1
 O  O9  1  0.39351  0.34819  0.98508  1
 O  O10  1  0.60649  0.65181  0.01492  1
 O  O11  1  0.85015  0.88549  0.11111  1
 O  O12  1  0.89351  0.65181  0.51492  1
 O  O13  1  0.27927  0.62215  0.61231  1
 O  O14  1  0.22073  0.62215  0.11231  1
 O  O15  1  0.10649  0.34819  0.48508  1
 O  O16  1  0.77927  0.37785  0.88769  1
 V  V1  1  0.83525  0.68204  0.70148  1
 V  V2  1  0.66475  0.68204  0.20148  1
 V  V3  1  0.16475  0.31796  0.29852  1
 V  V4  1  0.33525  0.31796  0.79852  1
