CIF file written using JARVIS-Tools package.
data_MgCu2SiSe4
_symmetry_space_group_name_H-M  'Pmn2_1'
_cell_length_a       6.57161
_cell_length_b       6.83538
_cell_length_c       7.99772
_cell_angle_alpha    90
_cell_angle_beta     90
_cell_angle_gamma    90

_symmetry_Int_Tables_number  31
_chemical_formula_structural  MgCu2SiSe4
_chemical_formula_sum  Mg2Cu4Si2Se8
_cell_volume  359.2531934528664
_cell_formula_units_Z  2
loop_
  _symmetry_equiv_pos_site_id
 _symmetry_equiv_pos_as_xyz
 1  'x, y, z'
loop_
 _atom_site_type_symbol
 _atom_site_label
 _atom_site_symmetry_multiplicity
 _atom_site_fract_x
 _atom_site_fract_y
 _atom_site_fract_z
 _atom_site_fract_occupancy
 Cu  Cu1  1  0.00772  0.17787  0.75264  1
 Cu  Cu2  1  0.00772  0.17787  0.24736  1
 Cu  Cu3  1  0.50772  0.82213  0.74736  1
 Cu  Cu4  1  0.50772  0.82213  0.25264  1
 Mg  Mg1  1  0.99496  0.65365  0.50000  1
 Mg  Mg2  1  0.49496  0.34635  0.00000  1
 Se  Se1  1  0.37505  0.15845  0.73316  1
 Se  Se2  1  0.37505  0.15845  0.26684  1
 Se  Se3  1  0.87505  0.84155  0.76684  1
 Se  Se4  1  0.87505  0.84155  0.23316  1
 Se  Se5  1  0.85144  0.30497  0.50000  1
 Se  Se6  1  0.35144  0.69503  0.00000  1
 Se  Se7  1  0.39032  0.64815  0.50000  1
 Se  Se8  1  0.89032  0.35185  0.00000  1
 Si  Si1  1  0.49754  0.32469  0.50000  1
 Si  Si2  1  0.99754  0.67531  0.00000  1
