CIF file written using JARVIS-Tools package.
data_V2AgN3
_symmetry_space_group_name_H-M  'P3_121'
_cell_length_a       2.94177
_cell_length_b       2.94177
_cell_length_c       26.1345
_cell_angle_alpha    90
_cell_angle_beta     90
_cell_angle_gamma    120

_symmetry_Int_Tables_number  152
_chemical_formula_structural  V2AgN3
_chemical_formula_sum  V6Ag3N9
_cell_volume  195.86741048740978
_cell_formula_units_Z  3
loop_
  _symmetry_equiv_pos_site_id
 _symmetry_equiv_pos_as_xyz
 1  'x, y, z'
loop_
 _atom_site_type_symbol
 _atom_site_label
 _atom_site_symmetry_multiplicity
 _atom_site_fract_x
 _atom_site_fract_y
 _atom_site_fract_z
 _atom_site_fract_occupancy
 Ag  Ag1  1  0.00000  0.36663  0.66667  1
 Ag  Ag2  1  0.36663  0.00000  0.33333  1
 Ag  Ag3  1  0.63337  0.63337  0.00000  1
 N  N1  1  0.00680  0.36874  0.74804  1
 N  N2  1  0.63126  0.63806  0.08137  1
 N  N3  1  0.36194  0.99320  0.41471  1
 N  N4  1  0.67789  0.67789  0.50000  1
 N  N5  1  0.32211  -0.00000  0.83333  1
 N  N6  1  -0.00000  0.32211  0.16667  1
 N  N7  1  0.36874  0.00680  0.25196  1
 N  N8  1  0.63806  0.63126  0.91863  1
 N  N9  1  0.99320  0.36194  0.58529  1
 V  V1  1  0.06047  0.29452  0.45242  1
 V  V2  1  0.70548  0.76595  0.78575  1
 V  V3  1  0.23405  0.93953  0.11909  1
 V  V4  1  0.29452  0.06047  0.54758  1
 V  V5  1  0.93953  0.23405  0.88091  1
 V  V6  1  0.76595  0.70548  0.21425  1
