CIF file written using JARVIS-Tools package.
data_NbF5
_symmetry_space_group_name_H-M  'C2/m'
_cell_length_a       8.58836
_cell_length_b       8.58836
_cell_length_c       4.83033
_cell_angle_alpha    92.2055
_cell_angle_beta     92.2055
_cell_angle_gamma    110.156

_symmetry_Int_Tables_number  12
_chemical_formula_structural  NbF5
_chemical_formula_sum  Nb4F20
_cell_volume  333.70859704904876
_cell_formula_units_Z  4
loop_
  _symmetry_equiv_pos_site_id
 _symmetry_equiv_pos_as_xyz
 1  'x, y, z'
loop_
 _atom_site_type_symbol
 _atom_site_label
 _atom_site_symmetry_multiplicity
 _atom_site_fract_x
 _atom_site_fract_y
 _atom_site_fract_z
 _atom_site_fract_occupancy
 F  F1  1  0.20903  0.02766  0.67476  1
 F  F2  1  0.88441  0.88441  0.85127  1
 F  F3  1  0.11559  0.11559  0.14873  1
 F  F4  1  0.63586  0.63586  0.75590  1
 F  F5  1  0.36414  0.36414  0.24410  1
 F  F6  1  0.53271  0.73444  0.20605  1
 F  F7  1  0.26556  0.46729  0.79395  1
 F  F8  1  0.46729  0.26556  0.79395  1
 F  F9  1  0.40524  0.82702  0.68819  1
 F  F10  1  0.73444  0.53271  0.20605  1
 F  F11  1  0.02766  0.20903  0.67476  1
 F  F12  1  0.17298  0.59476  0.31181  1
 F  F13  1  0.97234  0.79097  0.32524  1
 F  F14  1  0.70207  0.07298  0.80209  1
 F  F15  1  0.92702  0.29793  0.19791  1
 F  F16  1  0.29793  0.92702  0.19791  1
 F  F17  1  0.07298  0.70207  0.80209  1
 F  F18  1  0.59476  0.17298  0.31181  1
 F  F19  1  0.82702  0.40524  0.68819  1
 F  F20  1  0.79097  0.97234  0.32524  1
 Nb  Nb1  1  0.20246  0.79754  0.50000  1
 Nb  Nb2  1  0.79754  0.20246  0.50000  1
 Nb  Nb3  1  0.25676  0.25676  0.90299  1
 Nb  Nb4  1  0.74324  0.74324  0.09701  1
