CIF file written using JARVIS-Tools package.
data_Ca8In3
_symmetry_space_group_name_H-M  'P-1'
_cell_length_a       9.49777
_cell_length_b       9.56468
_cell_length_c       9.63667
_cell_angle_alpha    98.9641
_cell_angle_beta     101.075
_cell_angle_gamma    119.727

_symmetry_Int_Tables_number  2
_chemical_formula_structural  Ca8In3
_chemical_formula_sum  Ca6In6
_cell_volume  712.9504508957809
_cell_formula_units_Z  2
loop_
  _symmetry_equiv_pos_site_id
 _symmetry_equiv_pos_as_xyz
 1  'x, y, z'
loop_
 _atom_site_type_symbol
 _atom_site_label
 _atom_site_symmetry_multiplicity
 _atom_site_fract_x
 _atom_site_fract_y
 _atom_site_fract_z
 _atom_site_fract_occupancy
 Ca  Ca1  1  0.92113  0.76916  0.39188  1
 Ca  Ca2  1  0.07887  0.23084  0.60812  1
 Ca  Ca3  1  0.70208  0.49856  0.61282  1
 Ca  Ca4  1  0.46636  0.29700  0.85080  1
 Ca  Ca5  1  0.53364  0.70300  0.14920  1
 Ca  Ca6  1  0.12065  0.60051  0.85396  1
 Ca  Ca7  1  0.33239  0.87915  0.61198  1
 Ca  Ca8  1  0.46225  0.29466  0.20574  1
 Ca  Ca9  1  0.29792  0.50144  0.38718  1
 Ca  Ca10  1  0.87935  0.39949  0.14604  1
 Ca  Ca11  1  0.77199  0.15315  0.79715  1
 Ca  Ca12  1  0.03892  0.93873  0.82873  1
 Ca  Ca13  1  0.96108  0.06127  0.17127  1
 Ca  Ca14  1  0.53775  0.70534  0.79426  1
 Ca  Ca15  1  0.22801  0.84685  0.20285  1
 Ca  Ca16  1  0.66761  0.12085  0.38802  1
 In  In1  1  0.17322  0.33791  0.00013  1
 In  In2  1  0.50000  0.00000  -0.00000  1
 In  In3  1  0.82678  0.66209  -0.00013  1
 In  In4  1  0.67612  0.83888  0.52539  1
 In  In5  1  -0.00000  0.50000  0.50000  1
 In  In6  1  0.32388  0.16112  0.47461  1
