CIF file written using JARVIS-Tools package.
data_Zn2IN
_symmetry_space_group_name_H-M  'Pnma'
_cell_length_a       6.31216
_cell_length_b       6.41923
_cell_length_c       7.99791
_cell_angle_alpha    90
_cell_angle_beta     90
_cell_angle_gamma    90

_symmetry_Int_Tables_number  62
_chemical_formula_structural  Zn2IN
_chemical_formula_sum  Zn8I4N4
_cell_volume  324.0691335531925
_cell_formula_units_Z  4
loop_
  _symmetry_equiv_pos_site_id
 _symmetry_equiv_pos_as_xyz
 1  'x, y, z'
loop_
 _atom_site_type_symbol
 _atom_site_label
 _atom_site_symmetry_multiplicity
 _atom_site_fract_x
 _atom_site_fract_y
 _atom_site_fract_z
 _atom_site_fract_occupancy
 I  I1  1  0.25000  0.41843  0.38154  1
 I  I2  1  0.25000  0.91843  0.11846  1
 I  I3  1  0.75000  0.58157  0.61846  1
 I  I4  1  0.75000  0.08157  0.88154  1
 N  N1  1  0.25000  0.44155  0.87352  1
 N  N2  1  0.25000  0.94155  0.62648  1
 N  N3  1  0.75000  0.55845  0.12648  1
 N  N4  1  0.75000  0.05845  0.37352  1
 Zn  Zn1  1  0.25000  0.65162  0.69701  1
 Zn  Zn2  1  0.25000  0.15162  0.80299  1
 Zn  Zn3  1  0.75000  0.34838  0.30299  1
 Zn  Zn4  1  0.75000  0.84838  0.19701  1
 Zn  Zn5  1  0.00000  0.00000  0.50000  1
 Zn  Zn6  1  0.50000  0.50000  0.00000  1
 Zn  Zn7  1  0.50000  0.00000  0.50000  1
 Zn  Zn8  1  0.00000  0.50000  0.00000  1
