CIF file written using JARVIS-Tools package.
data_Ba3Ru3N5
_symmetry_space_group_name_H-M  'P-1'
_cell_length_a       6.52292
_cell_length_b       8.03645
_cell_length_c       9.06508
_cell_angle_alpha    103.894
_cell_angle_beta     111.88
_cell_angle_gamma    100.328

_symmetry_Int_Tables_number  2
_chemical_formula_structural  Ba3Ru3N5
_chemical_formula_sum  Ba6Ru6N0
_cell_volume  408.57345281088004
_cell_formula_units_Z  2
loop_
  _symmetry_equiv_pos_site_id
 _symmetry_equiv_pos_as_xyz
 1  'x, y, z'
loop_
 _atom_site_type_symbol
 _atom_site_label
 _atom_site_symmetry_multiplicity
 _atom_site_fract_x
 _atom_site_fract_y
 _atom_site_fract_z
 _atom_site_fract_occupancy
 Ba  Ba1  1  0.74203  0.41364  0.59798  1
 Ba  Ba2  1  0.25797  0.58636  0.40202  1
 Ba  Ba3  1  0.65437  0.88216  0.87048  1
 Ba  Ba4  1  0.34563  0.11784  0.12952  1
 Ba  Ba5  1  0.71113  0.68969  0.22170  1
 Ba  Ba6  1  0.28887  0.31031  0.77830  1
 N  N1  1  0.27654  0.95321  0.62729  1
 N  N2  1  0.24074  0.45872  0.08222  1
 N  N3  1  0.75926  0.54128  0.91778  1
 N  N4  1  0.27691  0.26058  0.44810  1
 N  N5  1  0.72309  0.73942  0.55190  1
 N  N6  1  0.18219  0.83783  0.22712  1
 N  N7  1  0.81781  0.16217  0.77288  1
 N  N8  1  0.81064  0.24457  0.12942  1
 N  N9  1  0.72346  0.04679  0.37271  1
 N  N10  1  0.18936  0.75543  0.87058  1
 Ru  Ru1  1  0.74240  -0.00424  0.56711  1
 Ru  Ru2  1  0.10071  0.66144  0.01990  1
 Ru  Ru3  1  0.06044  0.83015  0.68301  1
 Ru  Ru4  1  0.25760  0.00424  0.43289  1
 Ru  Ru5  1  0.93956  0.16985  0.31699  1
 Ru  Ru6  1  0.89929  0.33856  0.98010  1
