CIF file written using JARVIS-Tools package.
data_Ta2B2Os
_symmetry_space_group_name_H-M  'P4/mnc'
_cell_length_a       5.91162
_cell_length_b       5.91162
_cell_length_c       6.9107
_cell_angle_alpha    90
_cell_angle_beta     90
_cell_angle_gamma    90

_symmetry_Int_Tables_number  128
_chemical_formula_structural  Ta2B2Os
_chemical_formula_sum  Ta8B8Os4
_cell_volume  241.50989740764302
_cell_formula_units_Z  4
loop_
  _symmetry_equiv_pos_site_id
 _symmetry_equiv_pos_as_xyz
 1  'x, y, z'
loop_
 _atom_site_type_symbol
 _atom_site_label
 _atom_site_symmetry_multiplicity
 _atom_site_fract_x
 _atom_site_fract_y
 _atom_site_fract_z
 _atom_site_fract_occupancy
 B  B1  1  0.38658  0.88658  0.75000  1
 B  B2  1  0.88658  0.61342  0.75000  1
 B  B3  1  0.38658  0.88658  0.25000  1
 B  B4  1  0.11342  0.38658  0.75000  1
 B  B5  1  0.61342  0.11342  0.25000  1
 B  B6  1  0.88658  0.61342  0.25000  1
 B  B7  1  0.61342  0.11342  0.75000  1
 B  B8  1  0.11342  0.38658  0.25000  1
 Os  Os1  1  0.50000  0.50000  0.22178  1
 Os  Os2  1  0.50000  0.50000  0.77822  1
 Os  Os3  1  0.00000  0.00000  0.27822  1
 Os  Os4  1  0.00000  0.00000  0.72178  1
 Ta  Ta1  1  0.68664  0.83576  0.00000  1
 Ta  Ta2  1  0.31336  0.16424  0.00000  1
 Ta  Ta3  1  0.18664  0.66424  0.50000  1
 Ta  Ta4  1  0.81336  0.33576  0.50000  1
 Ta  Ta5  1  0.16424  0.68664  0.00000  1
 Ta  Ta6  1  0.83576  0.31336  0.00000  1
 Ta  Ta7  1  0.33576  0.18664  0.50000  1
 Ta  Ta8  1  0.66424  0.81336  0.50000  1
