CIF file written using JARVIS-Tools package.
data_GePbS3
_symmetry_space_group_name_H-M  'P4mm'
_cell_length_a       4.54231
_cell_length_b       4.54231
_cell_length_c       5.80341
_cell_angle_alpha    90
_cell_angle_beta     90
_cell_angle_gamma    90

_symmetry_Int_Tables_number  99
_chemical_formula_structural  GePbS3
_chemical_formula_sum  GePbS3
_cell_volume  119.73927150050086
_cell_formula_units_Z  1
loop_
  _symmetry_equiv_pos_site_id
 _symmetry_equiv_pos_as_xyz
 1  'x, y, z'
loop_
 _atom_site_type_symbol
 _atom_site_label
 _atom_site_symmetry_multiplicity
 _atom_site_fract_x
 _atom_site_fract_y
 _atom_site_fract_z
 _atom_site_fract_occupancy
 Ge  Ge1  1  0.50000  0.50000  0.61939  1
 Pb  Pb1  1  0.00000  0.00000  0.13915  1
 S  S1  1  0.00000  0.50000  0.46772  1
 S  S2  1  0.50000  0.00000  0.46772  1
 S  S3  1  0.50000  0.50000  -0.00377  1
