CIF file written using JARVIS-Tools package.
data_CeIr3
_symmetry_space_group_name_H-M  'P6_3/mmc'
_cell_length_a       5.34041
_cell_length_b       5.34041
_cell_length_c       17.7089
_cell_angle_alpha    90
_cell_angle_beta     90
_cell_angle_gamma    120

_symmetry_Int_Tables_number  194
_chemical_formula_structural  CeIr3
_chemical_formula_sum  Ce6Ir8
_cell_volume  437.3916700913162
_cell_formula_units_Z  6
loop_
  _symmetry_equiv_pos_site_id
 _symmetry_equiv_pos_as_xyz
 1  'x, y, z'
loop_
 _atom_site_type_symbol
 _atom_site_label
 _atom_site_symmetry_multiplicity
 _atom_site_fract_x
 _atom_site_fract_y
 _atom_site_fract_z
 _atom_site_fract_occupancy
 Ce  Ce1  1  0.33333  0.66667  0.95778  1
 Ce  Ce2  1  0.66667  0.33333  0.04222  1
 Ce  Ce3  1  0.66667  0.33333  0.45778  1
 Ce  Ce4  1  0.33333  0.66667  0.54222  1
 Ce  Ce5  1  0.33333  0.66667  0.75000  1
 Ce  Ce6  1  0.66667  0.33333  0.25000  1
 Ir  Ir1  1  0.16770  0.83230  0.37374  1
 Ir  Ir2  1  0.16770  0.33539  0.37374  1
 Ir  Ir3  1  0.66461  0.83230  0.37374  1
 Ir  Ir4  1  0.83230  0.16770  0.62626  1
 Ir  Ir5  1  0.83230  0.66461  0.62626  1
 Ir  Ir6  1  0.00000  0.00000  0.50000  1
 Ir  Ir7  1  0.83230  0.16770  0.87374  1
 Ir  Ir8  1  0.33539  0.16770  0.62626  1
 Ir  Ir9  1  0.16770  0.33539  0.12626  1
 Ir  Ir10  1  0.16770  0.83230  0.12626  1
 Ir  Ir11  1  0.83230  0.66461  0.87374  1
 Ir  Ir12  1  0.66461  0.83230  0.12626  1
 Ir  Ir13  1  0.33333  0.66667  0.25000  1
 Ir  Ir14  1  0.66667  0.33333  0.75000  1
 Ir  Ir15  1  0.00000  0.00000  0.25000  1
 Ir  Ir16  1  0.00000  0.00000  0.75000  1
 Ir  Ir17  1  0.33539  0.16770  0.87374  1
 Ir  Ir18  1  0.00000  0.00000  0.00000  1
