CIF file written using JARVIS-Tools package.
data_Ca4RhN4
_symmetry_space_group_name_H-M  'P-1'
_cell_length_a       6.10356
_cell_length_b       5.95276
_cell_length_c       8.66548
_cell_angle_alpha    66.9942
_cell_angle_beta     77.6088
_cell_angle_gamma    70.1944

_symmetry_Int_Tables_number  2
_chemical_formula_structural  Ca4RhN4
_chemical_formula_sum  Ca8Rh2N8
_cell_volume  271.42978244247405
_cell_formula_units_Z  2
loop_
  _symmetry_equiv_pos_site_id
 _symmetry_equiv_pos_as_xyz
 1  'x, y, z'
loop_
 _atom_site_type_symbol
 _atom_site_label
 _atom_site_symmetry_multiplicity
 _atom_site_fract_x
 _atom_site_fract_y
 _atom_site_fract_z
 _atom_site_fract_occupancy
 Ca  Ca1  1  0.78732  0.58672  0.15353  1
 Ca  Ca2  1  0.21268  0.41328  0.84647  1
 Ca  Ca3  1  0.72050  0.21332  0.98680  1
 Ca  Ca4  1  0.27950  0.78668  0.01320  1
 Ca  Ca5  1  0.73157  0.47673  0.57310  1
 Ca  Ca6  1  0.26843  0.52327  0.42690  1
 Ca  Ca7  1  0.21523  0.95646  0.61951  1
 Ca  Ca8  1  0.78477  0.04354  0.38049  1
 N  N1  1  0.49064  0.38117  0.20628  1
 N  N2  1  0.50936  0.61883  0.79372  1
 N  N3  1  0.05293  0.14238  0.11556  1
 N  N4  1  0.94707  0.85762  0.88444  1
 N  N5  1  0.46860  0.16693  0.67380  1
 N  N6  1  0.98300  0.67653  0.61923  1
 N  N7  1  0.53140  0.83307  0.32620  1
 N  N8  1  0.01700  0.32347  0.38077  1
 Rh  Rh1  1  0.71037  0.85412  0.75922  1
 Rh  Rh2  1  0.28963  0.14588  0.24078  1
