CIF file written using JARVIS-Tools package.
data_Nb5Si3P
_symmetry_space_group_name_H-M  'P6_3/mcm'
_cell_length_a       7.81239
_cell_length_b       7.81239
_cell_length_c       5.44385
_cell_angle_alpha    90
_cell_angle_beta     90
_cell_angle_gamma    120

_symmetry_Int_Tables_number  193
_chemical_formula_structural  Nb5Si3P
_chemical_formula_sum  Nb0Si6P2
_cell_volume  287.7426814657703
_cell_formula_units_Z  2
loop_
  _symmetry_equiv_pos_site_id
 _symmetry_equiv_pos_as_xyz
 1  'x, y, z'
loop_
 _atom_site_type_symbol
 _atom_site_label
 _atom_site_symmetry_multiplicity
 _atom_site_fract_x
 _atom_site_fract_y
 _atom_site_fract_z
 _atom_site_fract_occupancy
 Nb  Nb1  1  0.66667  0.33333  0.00000  1
 Nb  Nb2  1  0.73469  0.73469  0.75000  1
 Nb  Nb3  1  0.33333  0.66667  0.50000  1
 Nb  Nb4  1  0.66667  0.33333  0.50000  1
 Nb  Nb5  1  0.73469  -0.00000  0.25000  1
 Nb  Nb6  1  0.33333  0.66667  0.00000  1
 Nb  Nb7  1  0.00000  0.26531  0.75000  1
 Nb  Nb8  1  0.26531  0.26531  0.25000  1
 Nb  Nb9  1  -0.00000  0.73469  0.25000  1
 Nb  Nb10  1  0.26531  0.00000  0.75000  1
 P  P1  1  0.00000  0.00000  0.00000  1
 P  P2  1  0.00000  0.00000  0.50000  1
 Si  Si1  1  0.39941  0.39941  0.75000  1
 Si  Si2  1  0.60059  0.00000  0.75000  1
 Si  Si3  1  0.00000  0.60059  0.75000  1
 Si  Si4  1  0.60059  0.60059  0.25000  1
 Si  Si5  1  0.39941  -0.00000  0.25000  1
 Si  Si6  1  -0.00000  0.39941  0.25000  1
