CIF file written using JARVIS-Tools package.
data_Mg2SiSe4
_symmetry_space_group_name_H-M  'Pnma'
_cell_length_a       6.28829
_cell_length_b       7.84088
_cell_length_c       13.4253
_cell_angle_alpha    90
_cell_angle_beta     90
_cell_angle_gamma    90

_symmetry_Int_Tables_number  62
_chemical_formula_structural  Mg2SiSe4
_chemical_formula_sum  Mg8Si4Se6
_cell_volume  661.9472134165064
_cell_formula_units_Z  4
loop_
  _symmetry_equiv_pos_site_id
 _symmetry_equiv_pos_as_xyz
 1  'x, y, z'
loop_
 _atom_site_type_symbol
 _atom_site_label
 _atom_site_symmetry_multiplicity
 _atom_site_fract_x
 _atom_site_fract_y
 _atom_site_fract_z
 _atom_site_fract_occupancy
 Mg  Mg1  1  0.00000  0.50000  0.00000  1
 Mg  Mg2  1  0.50000  0.00000  0.50000  1
 Mg  Mg3  1  0.00000  0.00000  0.00000  1
 Mg  Mg4  1  0.50000  0.50000  0.50000  1
 Mg  Mg5  1  0.49336  0.75000  0.23100  1
 Mg  Mg6  1  0.00664  0.75000  0.73100  1
 Mg  Mg7  1  0.50664  0.25000  0.76900  1
 Mg  Mg8  1  0.99336  0.25000  0.26900  1
 Se  Se1  1  0.23214  0.75000  0.90742  1
 Se  Se2  1  0.74478  0.75000  0.06907  1
 Se  Se3  1  0.75522  0.75000  0.56907  1
 Se  Se4  1  0.26786  0.75000  0.40742  1
 Se  Se5  1  0.73214  0.25000  0.59258  1
 Se  Se6  1  0.74719  0.98054  0.33198  1
 Se  Se7  1  0.25522  0.25000  0.93093  1
 Se  Se8  1  0.76786  0.25000  0.09258  1
 Se  Se9  1  0.74719  0.51946  0.33198  1
 Se  Se10  1  0.25281  0.48054  0.66802  1
 Se  Se11  1  0.25281  0.01946  0.66802  1
 Se  Se12  1  0.24719  0.48054  0.16802  1
 Se  Se13  1  0.24478  0.25000  0.43093  1
 Se  Se14  1  0.24719  0.01946  0.16802  1
 Se  Se15  1  0.75281  0.98054  0.83198  1
 Se  Se16  1  0.75281  0.51946  0.83198  1
 Si  Si1  1  0.90580  0.75000  0.41123  1
 Si  Si2  1  0.59420  0.75000  0.91123  1
 Si  Si3  1  0.09420  0.25000  0.58877  1
 Si  Si4  1  0.40580  0.25000  0.08877  1
