CIF file written using JARVIS-Tools package.
data_U8NiSe17
_symmetry_space_group_name_H-M  'C2/m'
_cell_length_a       8.2069
_cell_length_b       8.20689
_cell_length_c       10.8176
_cell_angle_alpha    79.8617
_cell_angle_beta     79.8617
_cell_angle_gamma    64.3498

_symmetry_Int_Tables_number  12
_chemical_formula_structural  U8NiSe17
_chemical_formula_sum  U8NiSe7
_cell_volume  642.4402201562046
_cell_formula_units_Z  1
loop_
  _symmetry_equiv_pos_site_id
 _symmetry_equiv_pos_as_xyz
 1  'x, y, z'
loop_
 _atom_site_type_symbol
 _atom_site_label
 _atom_site_symmetry_multiplicity
 _atom_site_fract_x
 _atom_site_fract_y
 _atom_site_fract_z
 _atom_site_fract_occupancy
 Ni  Ni1  1  0.00000  0.00000  0.00000  1
 Se  Se1  1  0.94798  0.94798  0.22222  1
 Se  Se2  1  0.81840  0.43501  0.53740  1
 Se  Se3  1  0.43501  0.81840  0.53740  1
 Se  Se4  1  0.18160  0.56499  0.46260  1
 Se  Se5  1  0.47941  0.47941  0.16987  1
 Se  Se6  1  0.94745  0.32322  0.02431  1
 Se  Se7  1  0.32322  0.94745  0.02431  1
 Se  Se8  1  0.05255  0.67678  0.97569  1
 Se  Se9  1  0.56499  0.18160  0.46260  1
 Se  Se10  1  0.21687  0.21687  0.27745  1
 Se  Se11  1  0.78313  0.78313  0.72255  1
 Se  Se12  1  0.05202  0.05202  0.77778  1
 Se  Se13  1  -0.00000  0.00000  0.50000  1
 Se  Se14  1  0.29705  0.29705  0.75685  1
 Se  Se15  1  0.70295  0.70295  0.24315  1
 Se  Se16  1  0.52059  0.52059  0.83013  1
 Se  Se17  1  0.67678  0.05255  0.97569  1
 U  U1  1  0.32016  0.32016  0.01491  1
 U  U2  1  0.67984  0.67984  0.98509  1
 U  U3  1  0.79878  0.79878  0.45480  1
 U  U4  1  0.20122  0.20122  0.54520  1
 U  U5  1  0.69453  0.17965  0.70320  1
 U  U6  1  0.17965  0.69453  0.70320  1
 U  U7  1  0.30547  0.82035  0.29680  1
 U  U8  1  0.82035  0.30547  0.29680  1
