CIF file written using JARVIS-Tools package.
data_LaMnO3
_symmetry_space_group_name_H-M  'Pm-3m'
_cell_length_a       5.48909
_cell_length_b       5.48908
_cell_length_c       8.67648
_cell_angle_alpha    71.5623
_cell_angle_beta     71.5623
_cell_angle_gamma    90.0123

_symmetry_Int_Tables_number  221
_chemical_formula_structural  LaMnO3
_chemical_formula_sum  La4Mn4O2
_cell_volume  233.8086449587813
_cell_formula_units_Z  4
loop_
  _symmetry_equiv_pos_site_id
 _symmetry_equiv_pos_as_xyz
 1  'x, y, z'
loop_
 _atom_site_type_symbol
 _atom_site_label
 _atom_site_symmetry_multiplicity
 _atom_site_fract_x
 _atom_site_fract_y
 _atom_site_fract_z
 _atom_site_fract_occupancy
 La  La1  1  0.75000  0.75000  0.50000  1
 La  La2  1  0.50000  0.50000  0.00000  1
 La  La3  1  0.25000  0.25000  0.50000  1
 La  La4  1  0.00000  1.00000  0.00000  1
 Mn  Mn1  1  0.37500  0.87500  0.25000  1
 Mn  Mn2  1  0.12500  0.62500  0.75000  1
 Mn  Mn3  1  0.62500  0.12500  0.75000  1
 Mn  Mn4  1  0.87500  0.37500  0.25000  1
 O  O1  1  0.87499  0.37500  0.75001  1
 O  O2  1  0.87500  0.87500  0.75000  1
 O  O3  1  0.37501  0.87501  0.74999  1
 O  O4  1  0.12499  0.62499  0.25001  1
 O  O5  1  0.62500  0.12500  0.24999  1
 O  O6  1  0.37500  0.37500  0.75000  1
 O  O7  1  0.25000  0.75000  0.50000  1
 O  O8  1  0.00002  0.50002  0.00000  1
 O  O9  1  0.75000  0.25000  0.50000  1
 O  O10  1  0.12500  0.12500  0.25000  1
 O  O11  1  0.49998  -0.00002  -0.00000  1
 O  O12  1  0.62500  0.62500  0.25000  1
