CIF file written using JARVIS-Tools package.
data_YMgMoS4
_symmetry_space_group_name_H-M  'Imma'
_cell_length_a       7.70894
_cell_length_b       7.58388
_cell_length_c       7.58383
_cell_angle_alpha    60.2782
_cell_angle_beta     59.4533
_cell_angle_gamma    59.4529

_symmetry_Int_Tables_number  74
_chemical_formula_structural  YMgMoS4
_chemical_formula_sum  Y2Mg2Mo2S8
_cell_volume  311.53647240783846
_cell_formula_units_Z  2
loop_
  _symmetry_equiv_pos_site_id
 _symmetry_equiv_pos_as_xyz
 1  'x, y, z'
loop_
 _atom_site_type_symbol
 _atom_site_label
 _atom_site_symmetry_multiplicity
 _atom_site_fract_x
 _atom_site_fract_y
 _atom_site_fract_z
 _atom_site_fract_occupancy
 Mg  Mg1  1  0.87461  0.87540  0.87540  1
 Mg  Mg2  1  0.12539  0.12460  0.12460  1
 Mo  Mo1  1  0.50000  0.50000  -0.00000  1
 Mo  Mo2  1  0.50000  -0.00000  0.50000  1
 S  S1  1  0.71474  0.75611  0.75611  1
 S  S2  1  0.26252  0.24139  0.73358  1
 S  S3  1  0.26251  0.73358  0.24139  1
 S  S4  1  0.72697  0.24388  0.24389  1
 S  S5  1  0.73749  0.26642  0.75861  1
 S  S6  1  0.27304  0.75612  0.75611  1
 S  S7  1  0.28526  0.24389  0.24389  1
 S  S8  1  0.73749  0.75861  0.26642  1
 Y  Y1  1  0.50000  0.50000  0.50000  1
 Y  Y2  1  0.00000  0.50000  0.50000  1
