CIF file written using JARVIS-Tools package.
data_Na5Dy4Si4O16F
_symmetry_space_group_name_H-M  'I-4'
_cell_length_a       8.63191
_cell_length_b       8.63191
_cell_length_c       8.63192
_cell_angle_alpha    95.6737
_cell_angle_beta     95.6736
_cell_angle_gamma    143.348

_symmetry_Int_Tables_number  82
_chemical_formula_structural  Na5Dy4Si4O16F
_chemical_formula_sum  Na5Dy4Si4O6F
_cell_volume  364.46554606218706
_cell_formula_units_Z  1
loop_
  _symmetry_equiv_pos_site_id
 _symmetry_equiv_pos_as_xyz
 1  'x, y, z'
loop_
 _atom_site_type_symbol
 _atom_site_label
 _atom_site_symmetry_multiplicity
 _atom_site_fract_x
 _atom_site_fract_y
 _atom_site_fract_z
 _atom_site_fract_occupancy
 Dy  Dy1  1  0.90896  0.84235  0.70256  1
 Dy  Dy2  1  0.13979  0.20640  0.29744  1
 Dy  Dy3  1  0.79360  0.09104  0.93340  1
 Dy  Dy4  1  0.15765  0.86021  0.06660  1
 F  F1  1  0.00000  0.00000  0.00000  1
 Na  Na1  1  0.59478  0.90091  0.51548  1
 Na  Na2  1  0.92070  0.40522  0.30613  1
 Na  Na3  1  0.09909  0.61457  0.69387  1
 Na  Na4  1  0.38543  0.07930  0.48452  1
 Na  Na5  1  0.50000  0.50000  0.00000  1
 O  O1  1  0.37167  0.86885  0.27876  1
 O  O2  1  0.63488  0.66819  0.44012  1
 O  O3  1  0.13115  0.40991  0.50282  1
 O  O4  1  0.90710  0.62833  0.49718  1
 O  O5  1  0.22005  0.45247  0.13580  1
 O  O6  1  0.31667  0.08425  0.86420  1
 O  O7  1  0.54753  0.68333  0.76758  1
 O  O8  1  0.59009  0.09290  0.72124  1
 O  O9  1  0.72663  0.96750  0.17446  1
 O  O10  1  0.44782  0.27337  0.24087  1
 O  O11  1  0.33181  0.77192  0.96669  1
 O  O12  1  0.80523  0.36512  0.03331  1
 O  O13  1  0.91575  0.77995  0.23242  1
 O  O14  1  0.79305  0.55218  0.82554  1
 O  O15  1  0.03250  0.20695  0.75913  1
 O  O16  1  0.22808  0.19477  0.55988  1
 Si  Si1  1  0.61470  0.26414  0.85653  1
 Si  Si2  1  0.40761  0.75817  0.14347  1
 Si  Si3  1  0.24183  0.38530  0.64944  1
 Si  Si4  1  0.73586  0.59239  0.35056  1
