CIF file written using JARVIS-Tools package.
data_Nb8PtSe20
_symmetry_space_group_name_H-M  'C2/m'
_cell_length_a       10.3849
_cell_length_b       10.3849
_cell_length_c       19.5862
_cell_angle_alpha    73.4757
_cell_angle_beta     73.4757
_cell_angle_gamma    19.2553

_symmetry_Int_Tables_number  12
_chemical_formula_structural  Nb8PtSe20
_chemical_formula_sum  Nb8PtSe20
_cell_volume  666.9690123004826
_cell_formula_units_Z  1
loop_
  _symmetry_equiv_pos_site_id
 _symmetry_equiv_pos_as_xyz
 1  'x, y, z'
loop_
 _atom_site_type_symbol
 _atom_site_label
 _atom_site_symmetry_multiplicity
 _atom_site_fract_x
 _atom_site_fract_y
 _atom_site_fract_z
 _atom_site_fract_occupancy
 Nb  Nb1  1  0.07772  0.07772  0.09159  1
 Nb  Nb2  1  0.92228  0.92228  0.90841  1
 Nb  Nb3  1  0.32997  0.32997  0.81125  1
 Nb  Nb4  1  0.67003  0.67003  0.18875  1
 Nb  Nb5  1  0.26988  0.26988  0.27952  1
 Nb  Nb6  1  0.73012  0.73012  0.72048  1
 Nb  Nb7  1  0.15034  0.15034  0.55653  1
 Nb  Nb8  1  0.84966  0.84966  0.44347  1
 Pt  Pt1  1  0.50000  0.50000  -0.00000  1
 Se  Se1  1  0.45068  0.45068  0.38855  1
 Se  Se2  1  0.54932  0.54932  0.61145  1
 Se  Se3  1  0.40404  0.40404  0.51680  1
 Se  Se4  1  0.59596  0.59596  0.48320  1
 Se  Se5  1  0.13830  0.13830  0.69924  1
 Se  Se6  1  0.06945  0.06945  0.22907  1
 Se  Se7  1  0.37698  0.37698  0.01212  1
 Se  Se8  1  0.62302  0.62302  0.98788  1
 Se  Se9  1  0.86170  0.86170  0.30076  1
 Se  Se10  1  0.33121  0.33121  0.67590  1
 Se  Se11  1  0.25552  0.25552  0.42756  1
 Se  Se12  1  0.74448  0.74448  0.57244  1
 Se  Se13  1  0.19834  0.19834  0.82607  1
 Se  Se14  1  0.66879  0.66879  0.32410  1
 Se  Se15  1  0.47743  0.47743  0.13204  1
 Se  Se16  1  0.52257  0.52257  0.86796  1
 Se  Se17  1  0.20693  0.20693  0.08513  1
 Se  Se18  1  0.79307  0.79307  0.91487  1
 Se  Se19  1  0.80166  0.80166  0.17393  1
 Se  Se20  1  0.93055  0.93055  0.77093  1
