CIF file written using JARVIS-Tools package.
data_Zr7As4
_symmetry_space_group_name_H-M  'C2/m'
_cell_length_a       8.35994
_cell_length_b       8.35993
_cell_length_c       15.1321
_cell_angle_alpha    75.5897
_cell_angle_beta     75.5897
_cell_angle_gamma    25.6468

_symmetry_Int_Tables_number  12
_chemical_formula_structural  Zr7As4
_chemical_formula_sum  Zr4As8
_cell_volume  442.57710084545096
_cell_formula_units_Z  2
loop_
  _symmetry_equiv_pos_site_id
 _symmetry_equiv_pos_as_xyz
 1  'x, y, z'
loop_
 _atom_site_type_symbol
 _atom_site_label
 _atom_site_symmetry_multiplicity
 _atom_site_fract_x
 _atom_site_fract_y
 _atom_site_fract_z
 _atom_site_fract_occupancy
 As  As1  1  0.93794  0.93794  0.84958  1
 As  As2  1  0.37005  0.37005  0.66063  1
 As  As3  1  0.62836  0.62836  0.59906  1
 As  As4  1  0.37164  0.37164  0.40094  1
 As  As5  1  0.82205  0.82205  0.10788  1
 As  As6  1  0.17795  0.17795  0.89212  1
 As  As7  1  0.06206  0.06206  0.15042  1
 As  As8  1  0.62995  0.62995  0.33937  1
 Zr  Zr1  1  0.20638  0.20638  0.20347  1
 Zr  Zr2  1  0.50000  0.50000  0.50000  1
 Zr  Zr3  1  0.43019  0.43019  0.16653  1
 Zr  Zr4  1  0.00000  0.00000  0.00000  1
 Zr  Zr5  1  0.80506  0.80506  0.30722  1
 Zr  Zr6  1  0.00206  0.00206  0.33681  1
 Zr  Zr7  1  0.79362  0.79362  0.79653  1
 Zr  Zr8  1  0.33799  0.33799  0.96664  1
 Zr  Zr9  1  0.66201  0.66201  0.03336  1
 Zr  Zr10  1  0.99794  0.99794  0.66319  1
 Zr  Zr11  1  0.17976  0.17976  0.45557  1
 Zr  Zr12  1  0.82024  0.82024  0.54443  1
 Zr  Zr13  1  0.19494  0.19494  0.69278  1
 Zr  Zr14  1  0.56981  0.56981  0.83347  1
