CIF file written using JARVIS-Tools package.
data_Hf6Ga16Pd7
_symmetry_space_group_name_H-M  'Fm-3m'
_cell_length_a       8.8128
_cell_length_b       8.8128
_cell_length_c       8.8128
_cell_angle_alpha    60
_cell_angle_beta     60
_cell_angle_gamma    60

_symmetry_Int_Tables_number  225
_chemical_formula_structural  Hf6Ga16Pd7
_chemical_formula_sum  Hf6Ga6Pd7
_cell_volume  483.9799783663769
_cell_formula_units_Z  1
loop_
  _symmetry_equiv_pos_site_id
 _symmetry_equiv_pos_as_xyz
 1  'x, y, z'
loop_
 _atom_site_type_symbol
 _atom_site_label
 _atom_site_symmetry_multiplicity
 _atom_site_fract_x
 _atom_site_fract_y
 _atom_site_fract_z
 _atom_site_fract_occupancy
 Ga  Ga1  1  0.63493  0.12169  0.12169  1
 Ga  Ga2  1  0.12169  0.12169  0.12169  1
 Ga  Ga3  1  0.87831  0.87831  0.36507  1
 Ga  Ga4  1  0.87831  0.36507  0.87831  1
 Ga  Ga5  1  0.36507  0.87831  0.87831  1
 Ga  Ga6  1  0.87831  0.87831  0.87831  1
 Ga  Ga7  1  0.34090  0.34090  0.34090  1
 Ga  Ga8  1  0.97731  0.34090  0.34090  1
 Ga  Ga9  1  0.34090  0.97731  0.34090  1
 Ga  Ga10  1  0.34090  0.34090  0.97731  1
 Ga  Ga11  1  0.65910  0.65910  0.65910  1
 Ga  Ga12  1  0.02269  0.65910  0.65910  1
 Ga  Ga13  1  0.65910  0.02269  0.65910  1
 Ga  Ga14  1  0.65910  0.65910  0.02269  1
 Ga  Ga15  1  0.12169  0.12169  0.63493  1
 Ga  Ga16  1  0.12169  0.63493  0.12169  1
 Hf  Hf1  1  0.68369  0.68369  0.31631  1
 Hf  Hf2  1  0.31631  0.68369  0.68369  1
 Hf  Hf3  1  0.68369  0.31631  0.68369  1
 Hf  Hf4  1  0.31631  0.31631  0.68369  1
 Hf  Hf5  1  0.68369  0.31631  0.31631  1
 Hf  Hf6  1  0.31631  0.68369  0.31631  1
 Pd  Pd1  1  0.00000  0.50000  0.00000  1
 Pd  Pd2  1  0.00000  0.00000  0.00000  1
 Pd  Pd3  1  0.00000  0.00000  0.50000  1
 Pd  Pd4  1  0.50000  0.00000  0.50000  1
 Pd  Pd5  1  0.00000  0.50000  0.50000  1
 Pd  Pd6  1  0.50000  0.50000  0.00000  1
 Pd  Pd7  1  0.50000  0.00000  0.00000  1
