CIF file written using JARVIS-Tools package.
data_TiVO4
_symmetry_space_group_name_H-M  'I-42d'
_cell_length_a       5.34021
_cell_length_b       10.2009
_cell_length_c       5.34022
_cell_angle_alpha    74.8281
_cell_angle_beta     89.996
_cell_angle_gamma    105.172

_symmetry_Int_Tables_number  122
_chemical_formula_structural  TiVO4
_chemical_formula_sum  Ti4V4O6
_cell_volume  270.24830083724595
_cell_formula_units_Z  4
loop_
  _symmetry_equiv_pos_site_id
 _symmetry_equiv_pos_as_xyz
 1  'x, y, z'
loop_
 _atom_site_type_symbol
 _atom_site_label
 _atom_site_symmetry_multiplicity
 _atom_site_fract_x
 _atom_site_fract_y
 _atom_site_fract_z
 _atom_site_fract_occupancy
 O  O1  1  0.64775  0.29553  0.85219  1
 O  O2  1  0.98460  0.46282  0.51568  1
 O  O3  1  0.47822  0.46282  0.02151  1
 O  O4  1  0.73433  0.96283  0.26539  1
 O  O5  1  0.10219  0.20446  0.89781  1
 O  O6  1  0.76545  0.03718  0.72843  1
 O  O7  1  0.27170  0.03717  0.23440  1
 O  O8  1  0.22849  0.96282  0.77178  1
 O  O9  1  0.01560  0.53717  0.97830  1
 O  O10  1  0.89589  0.79182  0.10406  1
 O  O11  1  0.39781  0.79553  0.60225  1
 O  O12  1  0.60412  0.20819  0.39586  1
 O  O13  1  0.14594  0.29182  0.35411  1
 O  O14  1  0.35219  0.70447  0.14781  1
 O  O15  1  0.85414  0.70819  0.64588  1
 O  O16  1  0.52157  0.53718  0.48454  1
 Ti  Ti1  1  0.11971  0.75001  0.87499  1
 Ti  Ti2  1  0.63033  0.74997  0.37501  1
 Ti  Ti3  1  0.37501  0.25001  0.13029  1
 Ti  Ti4  1  0.87499  0.24997  0.61967  1
 V  V1  1  0.00155  0.00317  0.99844  1
 V  V2  1  0.25156  0.50317  0.24844  1
 V  V3  1  0.49841  0.99684  0.50154  1
 V  V4  1  0.74846  0.49684  0.75159  1
