CIF file written using JARVIS-Tools package.
data_Y10Cd3Ru
_symmetry_space_group_name_H-M  'P6_3/mmc'
_cell_length_a       9.59641
_cell_length_b       9.59642
_cell_length_c       9.73381
_cell_angle_alpha    90
_cell_angle_beta     90
_cell_angle_gamma    120

_symmetry_Int_Tables_number  194
_chemical_formula_structural  Y10Cd3Ru
_chemical_formula_sum  Y20Cd6Ru2
_cell_volume  776.3027353828359
_cell_formula_units_Z  2
loop_
  _symmetry_equiv_pos_site_id
 _symmetry_equiv_pos_as_xyz
 1  'x, y, z'
loop_
 _atom_site_type_symbol
 _atom_site_label
 _atom_site_symmetry_multiplicity
 _atom_site_fract_x
 _atom_site_fract_y
 _atom_site_fract_z
 _atom_site_fract_occupancy
 Cd  Cd1  1  0.76862  0.88431  0.75000  1
 Cd  Cd2  1  0.11569  0.23138  0.75000  1
 Cd  Cd3  1  0.11569  0.88431  0.75000  1
 Cd  Cd4  1  0.23138  0.11569  0.25000  1
 Cd  Cd5  1  0.88431  0.76862  0.25000  1
 Cd  Cd6  1  0.88431  0.11569  0.25000  1
 Ru  Ru1  1  0.66667  0.33333  0.75000  1
 Ru  Ru2  1  0.33333  0.66667  0.25000  1
 Y  Y1  1  0.79039  0.20961  0.55963  1
 Y  Y2  1  0.41921  0.20961  0.55963  1
 Y  Y3  1  0.79039  0.58079  0.55963  1
 Y  Y4  1  0.00000  0.00000  0.00000  1
 Y  Y5  1  0.58079  0.79039  0.44037  1
 Y  Y6  1  0.20961  0.41921  0.44037  1
 Y  Y7  1  0.00000  0.00000  0.50000  1
 Y  Y8  1  0.79039  0.20961  0.94037  1
 Y  Y9  1  0.58079  0.79039  0.05963  1
 Y  Y10  1  0.41921  0.20961  0.94037  1
 Y  Y11  1  0.20961  0.79039  0.05963  1
 Y  Y12  1  0.20961  0.41921  0.05963  1
 Y  Y13  1  0.54125  0.45875  0.25000  1
 Y  Y14  1  0.54125  0.08250  0.25000  1
 Y  Y15  1  0.91750  0.45875  0.25000  1
 Y  Y16  1  0.45875  0.54125  0.75000  1
 Y  Y17  1  0.45875  0.91750  0.75000  1
 Y  Y18  1  0.08250  0.54125  0.75000  1
 Y  Y19  1  0.79039  0.58079  0.94037  1
 Y  Y20  1  0.20961  0.79039  0.44037  1
