CIF file written using JARVIS-Tools package.
data_Pr3Ga2Ni2
_symmetry_space_group_name_H-M  'Pbcm'
_cell_length_a       5.70712
_cell_length_b       8.15732
_cell_length_c       13.1028
_cell_angle_alpha    90
_cell_angle_beta     90
_cell_angle_gamma    90

_symmetry_Int_Tables_number  57
_chemical_formula_structural  Pr3Ga2Ni2
_chemical_formula_sum  Pr2Ga8Ni8
_cell_volume  609.9963572597895
_cell_formula_units_Z  4
loop_
  _symmetry_equiv_pos_site_id
 _symmetry_equiv_pos_as_xyz
 1  'x, y, z'
loop_
 _atom_site_type_symbol
 _atom_site_label
 _atom_site_symmetry_multiplicity
 _atom_site_fract_x
 _atom_site_fract_y
 _atom_site_fract_z
 _atom_site_fract_occupancy
 Ga  Ga1  1  0.64531  0.75000  0.50000  1
 Ga  Ga2  1  0.16137  0.60136  0.75000  1
 Ga  Ga3  1  0.83863  0.10136  0.75000  1
 Ga  Ga4  1  0.83863  0.39864  0.25000  1
 Ga  Ga5  1  0.16137  0.89864  0.25000  1
 Ga  Ga6  1  0.35469  0.25000  0.50000  1
 Ga  Ga7  1  0.35469  0.25000  0.00000  1
 Ga  Ga8  1  0.64531  0.75000  0.00000  1
 Ni  Ni1  1  0.38460  0.96743  0.41108  1
 Ni  Ni2  1  0.38460  0.53257  0.91108  1
 Ni  Ni3  1  0.61540  0.46743  0.41108  1
 Ni  Ni4  1  0.38460  0.96743  0.08892  1
 Ni  Ni5  1  0.61540  0.03257  0.58892  1
 Ni  Ni6  1  0.38460  0.53257  0.58892  1
 Ni  Ni7  1  0.61540  0.46743  0.08892  1
 Ni  Ni8  1  0.61540  0.03257  0.91108  1
 Pr  Pr1  1  0.64840  0.74753  0.75000  1
 Pr  Pr2  1  0.35160  0.25247  0.25000  1
 Pr  Pr3  1  0.64840  0.75247  0.25000  1
 Pr  Pr4  1  0.35160  0.24753  0.75000  1
 Pr  Pr5  1  0.14869  0.60512  0.09816  1
 Pr  Pr6  1  0.85131  0.39488  0.59816  1
 Pr  Pr7  1  0.14869  0.89488  0.90184  1
 Pr  Pr8  1  0.85131  0.10512  0.40184  1
 Pr  Pr9  1  0.85131  0.39488  0.90184  1
 Pr  Pr10  1  0.14869  0.60512  0.40184  1
 Pr  Pr11  1  0.85131  0.10512  0.09816  1
 Pr  Pr12  1  0.14869  0.89488  0.59816  1
