CIF file written using JARVIS-Tools package.
data_SrLa2Mn2O7
_symmetry_space_group_name_H-M  'Ama2'
_cell_length_a       5.55232
_cell_length_b       5.48554
_cell_length_c       10.5357
_cell_angle_alpha    89.9995
_cell_angle_beta     105.276
_cell_angle_gamma    90.0045

_symmetry_Int_Tables_number  40
_chemical_formula_structural  SrLa2Mn2O7
_chemical_formula_sum  Sr2La4Mn4O4
_cell_volume  309.55386768809177
_cell_formula_units_Z  2
loop_
  _symmetry_equiv_pos_site_id
 _symmetry_equiv_pos_as_xyz
 1  'x, y, z'
loop_
 _atom_site_type_symbol
 _atom_site_label
 _atom_site_symmetry_multiplicity
 _atom_site_fract_x
 _atom_site_fract_y
 _atom_site_fract_z
 _atom_site_fract_occupancy
 La  La1  1  0.50524  -0.00008  0.00702  1
 La  La2  1  0.00262  0.49998  0.00730  1
 La  La3  1  0.82792  0.49993  0.63385  1
 La  La4  1  0.30528  0.00014  0.63381  1
 Mn  Mn1  1  0.90144  -0.00003  0.80668  1
 Mn  Mn2  1  0.09607  -0.00003  0.19709  1
 Mn  Mn3  1  0.40507  0.50001  0.80668  1
 Mn  Mn4  1  0.60125  0.50003  0.19707  1
 O  O1  1  0.84931  0.75012  0.19858  1
 O  O2  1  0.85047  0.00032  0.60623  1
 O  O3  1  0.33562  0.74991  0.17120  1
 O  O4  1  0.67483  0.49998  0.40704  1
 O  O5  1  0.23215  -0.00000  0.40702  1
 O  O6  1  0.94845  -0.00035  0.99539  1
 O  O7  1  0.25548  0.49959  0.60625  1
 O  O8  1  0.84947  0.25015  0.19839  1
 O  O9  1  0.16306  0.24990  0.82610  1
 O  O10  1  0.16272  0.74987  0.82582  1
 O  O11  1  0.64307  0.25001  0.78630  1
 O  O12  1  0.54708  0.50040  0.99537  1
 O  O13  1  0.33581  0.24985  0.17109  1
 O  O14  1  0.64272  0.75017  0.78600  1
 Sr  Sr1  1  0.18813  0.50002  0.36490  1
 Sr  Sr2  1  0.67673  0.00009  0.36482  1
