CIF file written using JARVIS-Tools package.
data_H2F
_symmetry_space_group_name_H-M  'P-1'
_cell_length_a       4.53536
_cell_length_b       3.1091
_cell_length_c       3.43425
_cell_angle_alpha    64.9732
_cell_angle_beta     136.176
_cell_angle_gamma    87.7566

_symmetry_Int_Tables_number  2
_chemical_formula_structural  H2F
_chemical_formula_sum  H2F
_cell_volume  25.39907755535076
_cell_formula_units_Z  1
loop_
  _symmetry_equiv_pos_site_id
 _symmetry_equiv_pos_as_xyz
 1  'x, y, z'
loop_
 _atom_site_type_symbol
 _atom_site_label
 _atom_site_symmetry_multiplicity
 _atom_site_fract_x
 _atom_site_fract_y
 _atom_site_fract_z
 _atom_site_fract_occupancy
 F  F1  1  0.68767  0.03429  0.22733  1
 H  H1  1  0.69087  0.02717  0.87555  1
 H  H2  1  0.68415  0.04169  0.57862  1
