CIF file written using JARVIS-Tools package.
data_HF2
_symmetry_space_group_name_H-M  'P-1'
_cell_length_a       3.12837
_cell_length_b       2.93405
_cell_length_c       5.53197
_cell_angle_alpha    48.1758
_cell_angle_beta     92.6942
_cell_angle_gamma    119.719

_symmetry_Int_Tables_number  2
_chemical_formula_structural  HF2
_chemical_formula_sum  HF2
_cell_volume  29.53902678163548
_cell_formula_units_Z  1
loop_
  _symmetry_equiv_pos_site_id
 _symmetry_equiv_pos_as_xyz
 1  'x, y, z'
loop_
 _atom_site_type_symbol
 _atom_site_label
 _atom_site_symmetry_multiplicity
 _atom_site_fract_x
 _atom_site_fract_y
 _atom_site_fract_z
 _atom_site_fract_occupancy
 F  F1  1  0.94844  0.42374  0.31767  1
 F  F2  1  0.17845  0.65538  0.90343  1
 H  H1  1  0.06341  0.03947  0.11060  1
