CIF file written using JARVIS-Tools package.
data_Nb4Rh2C
_symmetry_space_group_name_H-M  'Fd-3m'
_cell_length_a       8.48591
_cell_length_b       8.48592
_cell_length_c       8.48591
_cell_angle_alpha    60
_cell_angle_beta     60
_cell_angle_gamma    60

_symmetry_Int_Tables_number  227
_chemical_formula_structural  Nb4Rh2C
_chemical_formula_sum  Nb6Rh8C4
_cell_volume  432.09609859496084
_cell_formula_units_Z  4
loop_
  _symmetry_equiv_pos_site_id
 _symmetry_equiv_pos_as_xyz
 1  'x, y, z'
loop_
 _atom_site_type_symbol
 _atom_site_label
 _atom_site_symmetry_multiplicity
 _atom_site_fract_x
 _atom_site_fract_y
 _atom_site_fract_z
 _atom_site_fract_occupancy
 C  C1  1  0.12500  0.12500  0.12500  1
 C  C2  1  0.62500  0.12500  0.12500  1
 C  C3  1  0.12500  0.12500  0.62500  1
 C  C4  1  0.12500  0.62500  0.12500  1
 Nb  Nb1  1  0.18294  0.81706  0.18294  1
 Nb  Nb2  1  0.62500  0.12500  0.62500  1
 Nb  Nb3  1  0.62500  0.62500  0.62500  1
 Nb  Nb4  1  0.81706  0.81706  0.18294  1
 Nb  Nb5  1  0.18294  0.18294  0.81706  1
 Nb  Nb6  1  0.12500  0.62500  0.62500  1
 Nb  Nb7  1  0.06706  0.43294  0.06706  1
 Nb  Nb8  1  0.43294  0.06706  0.06706  1
 Nb  Nb9  1  0.06706  0.43294  0.43294  1
 Nb  Nb10  1  0.81706  0.18294  0.81706  1
 Nb  Nb11  1  0.43294  0.06706  0.43294  1
 Nb  Nb12  1  0.62500  0.62500  0.12500  1
 Nb  Nb13  1  0.43294  0.43294  0.06706  1
 Nb  Nb14  1  0.81706  0.18294  0.18294  1
 Nb  Nb15  1  0.18294  0.81706  0.81706  1
 Nb  Nb16  1  0.06706  0.06706  0.43294  1
 Rh  Rh1  1  0.83774  0.83774  0.83774  1
 Rh  Rh2  1  0.83774  0.83774  0.48678  1
 Rh  Rh3  1  0.48678  0.83774  0.83774  1
 Rh  Rh4  1  0.41226  0.41226  0.76322  1
 Rh  Rh5  1  0.41226  0.76322  0.41226  1
 Rh  Rh6  1  0.76322  0.41226  0.41226  1
 Rh  Rh7  1  0.41226  0.41226  0.41226  1
 Rh  Rh8  1  0.83774  0.48678  0.83774  1
