CIF file written using JARVIS-Tools package.
data_MgSiH6O6
_symmetry_space_group_name_H-M  'P2_1'
_cell_length_a       5.16498
_cell_length_b       5.11575
_cell_length_c       7.32067
_cell_angle_alpha    89.9337
_cell_angle_beta     90
_cell_angle_gamma    90

_symmetry_Int_Tables_number  4
_chemical_formula_structural  MgSiH6O6
_chemical_formula_sum  Mg2Si2H2O2
_cell_volume  193.43232843647334
_cell_formula_units_Z  2
loop_
  _symmetry_equiv_pos_site_id
 _symmetry_equiv_pos_as_xyz
 1  'x, y, z'
loop_
 _atom_site_type_symbol
 _atom_site_label
 _atom_site_symmetry_multiplicity
 _atom_site_fract_x
 _atom_site_fract_y
 _atom_site_fract_z
 _atom_site_fract_occupancy
 H  H1  1  0.79499  0.53987  0.50980  1
 H  H2  1  0.54269  0.70060  0.22553  1
 H  H3  1  0.29499  0.46013  0.49020  1
 H  H4  1  0.20841  0.96499  0.98680  1
 H  H5  1  0.68766  0.59129  0.95210  1
 H  H6  1  0.18766  0.40871  0.04790  1
 H  H7  1  0.35441  0.92938  0.45010  1
 H  H8  1  0.95750  0.22783  0.26895  1
 H  H9  1  0.45750  0.77217  0.73105  1
 H  H10  1  0.85441  0.07062  0.54990  1
 H  H11  1  0.04269  0.29940  0.77447  1
 H  H12  1  0.70841  0.03501  0.01320  1
 Mg  Mg1  1  0.00802  0.75230  0.25125  1
 Mg  Mg2  1  0.50802  0.24770  0.74875  1
 O  O1  1  0.31284  0.88845  0.68880  1
 O  O2  1  0.84987  0.05281  0.68564  1
 O  O3  1  0.34987  0.94719  0.31436  1
 O  O4  1  0.66686  0.56097  0.18703  1
 O  O5  1  0.16686  0.43903  0.81297  1
 O  O6  1  0.81284  0.11155  0.31120  1
 O  O7  1  0.04196  0.87060  0.98029  1
 O  O8  1  0.54196  0.12940  0.01971  1
 O  O9  1  0.96398  0.62892  0.52041  1
 O  O10  1  0.46398  0.37108  0.47959  1
 O  O11  1  0.20411  0.39999  0.18439  1
 O  O12  1  0.70411  0.60001  0.81561  1
 Si  Si1  1  0.50769  0.25216  0.24934  1
 Si  Si2  1  0.00769  0.74784  0.75066  1
