CIF file written using JARVIS-Tools package.
data_HF2
_symmetry_space_group_name_H-M  'P1'
_cell_length_a       3.1293
_cell_length_b       3.67318
_cell_length_c       3.09644
_cell_angle_alpha    95.1554
_cell_angle_beta     120.415
_cell_angle_gamma    75.9742

_symmetry_Int_Tables_number  1
_chemical_formula_structural  HF2
_chemical_formula_sum  HF2
_cell_volume  29.75585683907458
_cell_formula_units_Z  1
loop_
  _symmetry_equiv_pos_site_id
 _symmetry_equiv_pos_as_xyz
 1  'x, y, z'
loop_
 _atom_site_type_symbol
 _atom_site_label
 _atom_site_symmetry_multiplicity
 _atom_site_fract_x
 _atom_site_fract_y
 _atom_site_fract_z
 _atom_site_fract_occupancy
 F  F1  1  0.60722  0.90241  0.84920  1
 F  F2  1  0.02971  0.31309  0.44132  1
 H  H1  1  0.82392  0.11270  0.15288  1
