CIF file written using JARVIS-Tools package.
data_MgTi2O4
_symmetry_space_group_name_H-M  'Fd-3m'
_cell_length_a       6.00626
_cell_length_b       6.00626
_cell_length_c       8.49474
_cell_angle_alpha    90
_cell_angle_beta     90
_cell_angle_gamma    90

_symmetry_Int_Tables_number  227
_chemical_formula_structural  MgTi2O4
_chemical_formula_sum  Mg4Ti8O6
_cell_volume  306.4492210338381
_cell_formula_units_Z  4
loop_
  _symmetry_equiv_pos_site_id
 _symmetry_equiv_pos_as_xyz
 1  'x, y, z'
loop_
 _atom_site_type_symbol
 _atom_site_label
 _atom_site_symmetry_multiplicity
 _atom_site_fract_x
 _atom_site_fract_y
 _atom_site_fract_z
 _atom_site_fract_occupancy
 Mg  Mg1  1  0.25000  0.75000  0.75000  1
 Mg  Mg2  1  0.75000  0.25000  0.25000  1
 Mg  Mg3  1  0.25000  0.25000  0.50000  1
 Mg  Mg4  1  0.75000  0.75000  0.00000  1
 O  O1  1  0.98402  0.25004  0.63300  1
 O  O2  1  0.75004  0.98402  0.38299  1
 O  O3  1  0.75004  0.51598  0.38300  1
 O  O4  1  0.24996  0.48402  0.88300  1
 O  O5  1  0.74996  0.01598  0.86700  1
 O  O6  1  0.25004  0.98402  0.36700  1
 O  O7  1  0.01598  0.74996  0.13300  1
 O  O8  1  0.48402  0.24996  0.11700  1
 O  O9  1  0.25004  0.51598  0.36701  1
 O  O10  1  0.98402  0.75004  0.61701  1
 O  O11  1  0.01598  0.24996  0.11701  1
 O  O12  1  0.48402  0.74996  0.13299  1
 O  O13  1  0.51598  0.75004  0.61700  1
 O  O14  1  0.74996  0.48402  0.86701  1
 O  O15  1  0.51598  0.25004  0.63299  1
 O  O16  1  0.24996  0.01598  0.88299  1
 Ti  Ti1  1  0.25001  0.99995  0.12500  1
 Ti  Ti2  1  0.49995  0.24999  0.87500  1
 Ti  Ti3  1  0.50005  0.75001  0.37500  1
 Ti  Ti4  1  0.74999  0.00005  0.62500  1
 Ti  Ti5  1  0.24999  0.49995  0.12500  1
 Ti  Ti6  1  0.75001  0.50005  0.62500  1
 Ti  Ti7  1  0.00005  0.74999  0.37500  1
 Ti  Ti8  1  0.99995  0.25001  0.87500  1
