CIF file written using JARVIS-Tools package.
data_CaEr2S4
_symmetry_space_group_name_H-M  'Pnma'
_cell_length_a       3.861
_cell_length_b       12.8559
_cell_length_c       13.0241
_cell_angle_alpha    90
_cell_angle_beta     90
_cell_angle_gamma    90

_symmetry_Int_Tables_number  62
_chemical_formula_structural  CaEr2S4
_chemical_formula_sum  Ca4Er8S6
_cell_volume  646.4757178693407
_cell_formula_units_Z  4
loop_
  _symmetry_equiv_pos_site_id
 _symmetry_equiv_pos_as_xyz
 1  'x, y, z'
loop_
 _atom_site_type_symbol
 _atom_site_label
 _atom_site_symmetry_multiplicity
 _atom_site_fract_x
 _atom_site_fract_y
 _atom_site_fract_z
 _atom_site_fract_occupancy
 Ca  Ca1  1  0.25000  0.36897  0.58291  1
 Ca  Ca2  1  0.25000  0.86897  0.91709  1
 Ca  Ca3  1  0.75000  0.63103  0.41709  1
 Ca  Ca4  1  0.75000  0.13103  0.08291  1
 Er  Er1  1  0.75000  0.39298  0.91630  1
 Er  Er2  1  0.25000  0.10702  0.41630  1
 Er  Er3  1  0.75000  0.89298  0.58370  1
 Er  Er4  1  0.25000  0.60702  0.08370  1
 Er  Er5  1  0.25000  0.14665  0.79766  1
 Er  Er6  1  0.75000  0.85335  0.20234  1
 Er  Er7  1  0.75000  0.35335  0.29766  1
 Er  Er8  1  0.25000  0.64665  0.70234  1
 S  S1  1  0.25000  0.75757  0.52521  1
 S  S2  1  0.25000  0.21701  0.23704  1
 S  S3  1  0.75000  0.96526  0.38203  1
 S  S4  1  0.75000  0.78299  0.76296  1
 S  S5  1  0.75000  0.28299  0.73704  1
 S  S6  1  0.25000  0.25757  0.97479  1
 S  S7  1  0.25000  0.71701  0.26296  1
 S  S8  1  0.25000  0.53474  0.88203  1
 S  S9  1  0.25000  0.97050  0.11763  1
 S  S10  1  0.75000  0.52950  0.61763  1
 S  S11  1  0.75000  0.02950  0.88237  1
 S  S12  1  0.25000  0.03474  0.61797  1
 S  S13  1  0.75000  0.74243  0.02521  1
 S  S14  1  0.25000  0.47050  0.38237  1
 S  S15  1  0.75000  0.24243  0.47479  1
 S  S16  1  0.75000  0.46526  0.11797  1
