CIF file written using JARVIS-Tools package.
data_Li3NbV2O6
_symmetry_space_group_name_H-M  'P-1'
_cell_length_a       5.74078
_cell_length_b       6.15092
_cell_length_c       6.60223
_cell_angle_alpha    107.512
_cell_angle_beta     101.026
_cell_angle_gamma    92.3115

_symmetry_Int_Tables_number  2
_chemical_formula_structural  Li3NbV2O6
_chemical_formula_sum  Li6Nb2V4O2
_cell_volume  217.0270696604811
_cell_formula_units_Z  2
loop_
  _symmetry_equiv_pos_site_id
 _symmetry_equiv_pos_as_xyz
 1  'x, y, z'
loop_
 _atom_site_type_symbol
 _atom_site_label
 _atom_site_symmetry_multiplicity
 _atom_site_fract_x
 _atom_site_fract_y
 _atom_site_fract_z
 _atom_site_fract_occupancy
 Li  Li1  1  0.83122  0.84063  0.32184  1
 Li  Li2  1  0.33545  0.82603  0.34483  1
 Li  Li3  1  0.00307  0.49059  0.00101  1
 Li  Li4  1  0.49449  0.52066  0.98596  1
 Li  Li5  1  0.16360  0.17608  0.66566  1
 Li  Li6  1  0.67217  0.14601  0.68070  1
 Nb  Nb1  1  0.81501  0.34127  0.34343  1
 Nb  Nb2  1  0.35166  0.32539  0.32324  1
 O  O1  1  0.09280  0.57878  0.34850  1
 O  O2  1  0.74327  0.77298  0.98204  1
 O  O3  1  0.25108  0.74429  0.00546  1
 O  O4  1  0.42340  0.89368  0.68462  1
 O  O5  1  0.91559  0.92237  0.66120  1
 O  O6  1  0.40775  0.44988  0.66180  1
 O  O7  1  0.92322  0.41754  0.68302  1
 O  O8  1  0.58294  0.06212  0.33952  1
 O  O9  1  0.75891  0.21678  0.00487  1
 O  O10  1  0.07387  0.08789  0.31817  1
 O  O11  1  0.58373  0.60455  0.32715  1
 O  O12  1  0.24345  0.24913  -0.01635  1
 V  V1  1  0.02371  0.97810  0.97793  1
 V  V2  1  0.14295  0.68857  0.68874  1
 V  V3  1  0.47355  0.00600  0.00861  1
 V  V4  1  0.69312  0.66066  0.65805  1
