CIF file written using JARVIS-Tools package.
data_Tm4MgCo
_symmetry_space_group_name_H-M  'F-43m'
_cell_length_a       9.3728
_cell_length_b       9.3728
_cell_length_c       9.3728
_cell_angle_alpha    60
_cell_angle_beta     60
_cell_angle_gamma    60

_symmetry_Int_Tables_number  216
_chemical_formula_structural  Tm4MgCo
_chemical_formula_sum  Tm6Mg4Co4
_cell_volume  582.227289257592
_cell_formula_units_Z  4
loop_
  _symmetry_equiv_pos_site_id
 _symmetry_equiv_pos_as_xyz
 1  'x, y, z'
loop_
 _atom_site_type_symbol
 _atom_site_label
 _atom_site_symmetry_multiplicity
 _atom_site_fract_x
 _atom_site_fract_y
 _atom_site_fract_z
 _atom_site_fract_occupancy
 Co  Co1  1  0.57876  0.14041  0.14041  1
 Co  Co2  1  0.14041  0.14041  0.14041  1
 Co  Co3  1  0.14041  0.57876  0.14041  1
 Co  Co4  1  0.14041  0.14041  0.57876  1
 Mg  Mg1  1  0.26139  0.57953  0.57953  1
 Mg  Mg2  1  0.57953  0.26139  0.57953  1
 Mg  Mg3  1  0.57953  0.57953  0.26139  1
 Mg  Mg4  1  0.57953  0.57953  0.57953  1
 Tm  Tm1  1  0.81356  0.18644  0.81356  1
 Tm  Tm2  1  0.34383  0.34383  0.96850  1
 Tm  Tm3  1  0.34383  0.96850  0.34383  1
 Tm  Tm4  1  0.96850  0.34383  0.34383  1
 Tm  Tm5  1  0.34383  0.34383  0.34383  1
 Tm  Tm6  1  0.18644  0.81356  0.18644  1
 Tm  Tm7  1  0.56329  0.93671  0.93671  1
 Tm  Tm8  1  0.18644  0.18644  0.81356  1
 Tm  Tm9  1  0.81356  0.81356  0.18644  1
 Tm  Tm10  1  0.93671  0.56329  0.56329  1
 Tm  Tm11  1  0.56329  0.93671  0.56329  1
 Tm  Tm12  1  0.93671  0.56329  0.93671  1
 Tm  Tm13  1  0.56329  0.56329  0.93671  1
 Tm  Tm14  1  0.93671  0.93671  0.56329  1
 Tm  Tm15  1  0.18644  0.81356  0.81356  1
 Tm  Tm16  1  0.81356  0.18644  0.18644  1
