CIF file written using JARVIS-Tools package.
data_Y4MgIr
_symmetry_space_group_name_H-M  'F-43m'
_cell_length_a       9.69199
_cell_length_b       9.692
_cell_length_c       9.69199
_cell_angle_alpha    60
_cell_angle_beta     60
_cell_angle_gamma    60

_symmetry_Int_Tables_number  216
_chemical_formula_structural  Y4MgIr
_chemical_formula_sum  Y6Mg4Ir4
_cell_volume  643.7607976703657
_cell_formula_units_Z  4
loop_
  _symmetry_equiv_pos_site_id
 _symmetry_equiv_pos_as_xyz
 1  'x, y, z'
loop_
 _atom_site_type_symbol
 _atom_site_label
 _atom_site_symmetry_multiplicity
 _atom_site_fract_x
 _atom_site_fract_y
 _atom_site_fract_z
 _atom_site_fract_occupancy
 Ir  Ir1  1  0.82684  0.39105  0.39105  1
 Ir  Ir2  1  0.39105  0.39105  0.39105  1
 Ir  Ir3  1  0.39105  0.82684  0.39105  1
 Ir  Ir4  1  0.39105  0.39105  0.82684  1
 Mg  Mg1  1  0.51097  0.82968  0.82968  1
 Mg  Mg2  1  0.82968  0.51097  0.82968  1
 Mg  Mg3  1  0.82968  0.82968  0.51097  1
 Mg  Mg4  1  0.82968  0.82968  0.82968  1
 Y  Y1  1  0.06155  0.43845  0.06155  1
 Y  Y2  1  0.59665  0.59665  0.21006  1
 Y  Y3  1  0.59665  0.21006  0.59665  1
 Y  Y4  1  0.21006  0.59665  0.59665  1
 Y  Y5  1  0.59665  0.59665  0.59665  1
 Y  Y6  1  0.43845  0.06155  0.43845  1
 Y  Y7  1  0.81336  0.18664  0.18664  1
 Y  Y8  1  0.43845  0.43845  0.06155  1
 Y  Y9  1  0.06155  0.06155  0.43845  1
 Y  Y10  1  0.18664  0.81336  0.81336  1
 Y  Y11  1  0.81336  0.18664  0.81336  1
 Y  Y12  1  0.18664  0.81336  0.18664  1
 Y  Y13  1  0.81336  0.81336  0.18664  1
 Y  Y14  1  0.18664  0.18664  0.81336  1
 Y  Y15  1  0.43845  0.06155  0.06155  1
 Y  Y16  1  0.06155  0.43845  0.43845  1
