CIF file written using JARVIS-Tools package.
data_SrLa2Mn3O9
_symmetry_space_group_name_H-M  'P-3m1'
_cell_length_a       5.47823
_cell_length_b       5.48001
_cell_length_c       6.70367
_cell_angle_alpha    90.0226
_cell_angle_beta     90.0168
_cell_angle_gamma    119.999

_symmetry_Int_Tables_number  164
_chemical_formula_structural  SrLa2Mn3O9
_chemical_formula_sum  SrLa2Mn3O9
_cell_volume  174.28972451288936
_cell_formula_units_Z  1
loop_
  _symmetry_equiv_pos_site_id
 _symmetry_equiv_pos_as_xyz
 1  'x, y, z'
loop_
 _atom_site_type_symbol
 _atom_site_label
 _atom_site_symmetry_multiplicity
 _atom_site_fract_x
 _atom_site_fract_y
 _atom_site_fract_z
 _atom_site_fract_occupancy
 La  La1  1  0.66666  0.33332  0.33073  1
 La  La2  1  0.33335  0.66668  0.66927  1
 Mn  Mn1  1  0.66668  0.33334  0.83481  1
 Mn  Mn2  1  0.33333  0.66665  0.16519  1
 Mn  Mn3  1  0.00000  -0.00000  0.50000  1
 O  O1  1  0.83082  0.66160  0.66070  1
 O  O2  1  0.16919  0.33840  0.33930  1
 O  O3  1  0.83083  0.16925  0.66067  1
 O  O4  1  0.16918  0.83075  0.33933  1
 O  O5  1  0.33847  0.16926  0.66064  1
 O  O6  1  0.66154  0.83074  0.33936  1
 O  O7  1  0.50000  0.49999  0.00000  1
 O  O8  1  0.00000  0.49999  0.00000  1
 O  O9  1  0.50000  -0.00001  -0.00000  1
 Sr  Sr1  1  0.00000  1.00000  -0.00000  1
