CIF file written using JARVIS-Tools package.
data_TmCo12B6
_symmetry_space_group_name_H-M  'R-3m'
_cell_length_a       5.93339
_cell_length_b       5.93338
_cell_length_c       5.93338
_cell_angle_alpha    104.07
_cell_angle_beta     104.07
_cell_angle_gamma    104.07

_symmetry_Int_Tables_number  166
_chemical_formula_structural  TmCo12B6
_chemical_formula_sum  TmCo2B6
_cell_volume  186.12512438222242
_cell_formula_units_Z  1
loop_
  _symmetry_equiv_pos_site_id
 _symmetry_equiv_pos_as_xyz
 1  'x, y, z'
loop_
 _atom_site_type_symbol
 _atom_site_label
 _atom_site_symmetry_multiplicity
 _atom_site_fract_x
 _atom_site_fract_y
 _atom_site_fract_z
 _atom_site_fract_occupancy
 B  B1  1  0.67985  0.23307  0.23307  1
 B  B2  1  0.32015  0.76693  0.76693  1
 B  B3  1  0.76693  0.76693  0.32015  1
 B  B4  1  0.76693  0.32015  0.76693  1
 B  B5  1  0.23307  0.23307  0.67985  1
 B  B6  1  0.23307  0.67985  0.23307  1
 Co  Co1  1  0.86793  0.13207  0.50000  1
 Co  Co2  1  0.13207  0.86793  0.50000  1
 Co  Co3  1  0.50000  0.13207  0.86793  1
 Co  Co4  1  0.86793  0.50000  0.13207  1
 Co  Co5  1  0.13207  0.50000  0.86793  1
 Co  Co6  1  0.81406  0.54632  0.54632  1
 Co  Co7  1  0.54632  0.81406  0.54632  1
 Co  Co8  1  0.54632  0.54632  0.81406  1
 Co  Co9  1  0.45368  0.18594  0.45368  1
 Co  Co10  1  0.45368  0.45368  0.18594  1
 Co  Co11  1  0.18594  0.45368  0.45368  1
 Co  Co12  1  0.50000  0.86793  0.13207  1
 Tm  Tm1  1  0.00000  0.00000  0.00000  1
