CIF file written using JARVIS-Tools package.
data_V2OF5
_symmetry_space_group_name_H-M  'P3_221'
_cell_length_a       5.01868
_cell_length_b       13.3564
_cell_length_c       5.01906
_cell_angle_alpha    90.0018
_cell_angle_beta     120.001
_cell_angle_gamma    90.0031

_symmetry_Int_Tables_number  154
_chemical_formula_structural  V2OF5
_chemical_formula_sum  V6O3F5
_cell_volume  291.35859144558907
_cell_formula_units_Z  3
loop_
  _symmetry_equiv_pos_site_id
 _symmetry_equiv_pos_as_xyz
 1  'x, y, z'
loop_
 _atom_site_type_symbol
 _atom_site_label
 _atom_site_symmetry_multiplicity
 _atom_site_fract_x
 _atom_site_fract_y
 _atom_site_fract_z
 _atom_site_fract_occupancy
 F  F1  1  0.61277  0.75110  0.61844  1
 F  F2  1  0.99437  0.74892  0.38166  1
 F  F3  1  0.33899  0.41775  0.05392  1
 F  F4  1  0.94707  0.91459  0.65736  1
 F  F5  1  0.32401  0.91875  0.28039  1
 F  F6  1  0.28973  0.58542  0.34266  1
 F  F7  1  0.62430  0.25000  -0.00002  1
 F  F8  1  0.04820  0.08443  0.32765  1
 F  F9  1  0.70903  0.91666  0.04240  1
 F  F10  1  0.04360  0.58125  0.71958  1
 F  F11  1  0.38630  0.25207  0.37695  1
 F  F12  1  0.66668  0.58333  0.95762  1
 F  F13  1  0.28503  0.08225  0.94606  1
 F  F14  1  0.72059  0.41557  0.67229  1
 F  F15  1  0.00934  0.24793  0.62303  1
 O  O1  1  0.66663  0.08332  0.73132  1
 O  O2  1  0.93536  0.41667  0.26866  1
 O  O3  1  0.39799  0.74999  0.00004  1
 V  V1  1  0.35827  0.16247  0.66179  1
 V  V2  1  0.69648  0.33753  0.33818  1
 V  V3  1  0.32848  0.67086  0.69163  1
 V  V4  1  0.63686  0.82914  0.30841  1
 V  V5  1  0.97503  0.00420  0.97020  1
 V  V6  1  0.00487  0.49580  0.02979  1
