CIF file written using JARVIS-Tools package.
data_U3VSb5
_symmetry_space_group_name_H-M  'P6_3/mcm'
_cell_length_a       9.13051
_cell_length_b       9.1305
_cell_length_c       6.13981
_cell_angle_alpha    90
_cell_angle_beta     90
_cell_angle_gamma    120

_symmetry_Int_Tables_number  193
_chemical_formula_structural  U3VSb5
_chemical_formula_sum  U6V2Sb0
_cell_volume  443.2770577866278
_cell_formula_units_Z  2
loop_
  _symmetry_equiv_pos_site_id
 _symmetry_equiv_pos_as_xyz
 1  'x, y, z'
loop_
 _atom_site_type_symbol
 _atom_site_label
 _atom_site_symmetry_multiplicity
 _atom_site_fract_x
 _atom_site_fract_y
 _atom_site_fract_z
 _atom_site_fract_occupancy
 Sb  Sb1  1  0.33333  0.66667  0.00000  1
 Sb  Sb2  1  0.33333  0.66667  0.50000  1
 Sb  Sb3  1  0.25582  0.00000  0.75000  1
 Sb  Sb4  1  0.00000  0.25582  0.75000  1
 Sb  Sb5  1  0.74418  0.74418  0.75000  1
 Sb  Sb6  1  0.74418  -0.00000  0.25000  1
 Sb  Sb7  1  -0.00000  0.74418  0.25000  1
 Sb  Sb8  1  0.66667  0.33333  0.00000  1
 Sb  Sb9  1  0.66667  0.33333  0.50000  1
 Sb  Sb10  1  0.25582  0.25582  0.25000  1
 U  U1  1  -0.00000  0.38905  0.25000  1
 U  U2  1  0.38905  -0.00000  0.25000  1
 U  U3  1  0.61095  0.61095  0.25000  1
 U  U4  1  0.00000  0.61095  0.75000  1
 U  U5  1  0.61095  0.00000  0.75000  1
 U  U6  1  0.38905  0.38905  0.75000  1
 V  V1  1  0.00000  0.00000  0.50000  1
 V  V2  1  0.00000  0.00000  0.00000  1
