CIF file written using JARVIS-Tools package.
data_RbCrS2O8
_symmetry_space_group_name_H-M  'C2/c'
_cell_length_a       4.85792
_cell_length_b       9.50179
_cell_length_c       8.60831
_cell_angle_alpha    64.8063
_cell_angle_beta     90.0039
_cell_angle_gamma    75.1938

_symmetry_Int_Tables_number  15
_chemical_formula_structural  RbCrS2O8
_chemical_formula_sum  Rb2Cr2S4O6
_cell_volume  344.91262051850464
_cell_formula_units_Z  2
loop_
  _symmetry_equiv_pos_site_id
 _symmetry_equiv_pos_as_xyz
 1  'x, y, z'
loop_
 _atom_site_type_symbol
 _atom_site_label
 _atom_site_symmetry_multiplicity
 _atom_site_fract_x
 _atom_site_fract_y
 _atom_site_fract_z
 _atom_site_fract_occupancy
 Cr  Cr1  1  0.50002  -0.00000  0.50000  1
 Cr  Cr2  1  -0.00001  -0.00000  0.00000  1
 O  O1  1  0.62070  0.81717  0.73569  1
 O  O2  1  0.73544  0.64167  0.03933  1
 O  O3  1  0.12295  0.64161  0.53930  1
 O  O4  1  0.26451  0.35833  0.96070  1
 O  O5  1  0.37929  0.18282  0.26431  1
 O  O6  1  0.69592  0.93363  0.92810  1
 O  O7  1  0.38218  0.84447  0.43340  1
 O  O8  1  0.87708  0.35839  0.46071  1
 O  O9  1  0.87048  0.93353  0.42822  1
 O  O10  1  0.72665  0.15554  0.06656  1
 O  O11  1  -0.06194  0.18281  0.76432  1
 O  O12  1  0.27331  0.84446  -0.06656  1
 O  O13  1  0.06194  0.81719  0.23569  1
 O  O14  1  0.30404  0.06638  0.07189  1
 O  O15  1  0.61786  0.15553  0.56658  1
 O  O16  1  0.12958  0.06647  0.57180  1
 Rb  Rb1  1  0.70958  0.50000  0.74996  1
 Rb  Rb2  1  0.29042  0.50001  0.24999  1
 S  S1  1  0.89498  0.19329  0.58570  1
 S  S2  1  0.41179  0.19326  0.08571  1
 S  S3  1  0.10505  0.80670  0.41430  1
 S  S4  1  0.58818  0.80674  0.91429  1
