CIF file written using JARVIS-Tools package.
data_PbWO4
_symmetry_space_group_name_H-M  'I4_1/a'
_cell_length_a       7.18798
_cell_length_b       7.18798
_cell_length_c       7.18798
_cell_angle_alpha    134.968
_cell_angle_beta     134.968
_cell_angle_gamma    65.5799

_symmetry_Int_Tables_number  88
_chemical_formula_structural  PbWO4
_chemical_formula_sum  Pb2W2O8
_cell_volume  183.13303753937208
_cell_formula_units_Z  2
loop_
  _symmetry_equiv_pos_site_id
 _symmetry_equiv_pos_as_xyz
 1  'x, y, z'
loop_
 _atom_site_type_symbol
 _atom_site_label
 _atom_site_symmetry_multiplicity
 _atom_site_fract_x
 _atom_site_fract_y
 _atom_site_fract_z
 _atom_site_fract_occupancy
 O  O1  1  0.68413  0.06101  0.91088  1
 O  O2  1  0.52325  0.93413  0.12312  1
 O  O3  1  0.81101  0.40014  0.87688  1
 O  O4  1  0.15014  0.77325  0.08912  1
 O  O5  1  0.59986  0.47675  0.41088  1
 O  O6  1  0.93899  0.84986  0.62312  1
 O  O7  1  0.22675  0.31587  0.37688  1
 O  O8  1  0.06587  0.18899  0.58912  1
 Pb  Pb1  1  0.50000  0.50000  -0.00000  1
 Pb  Pb2  1  0.25000  0.75000  0.50000  1
 W  W1  1  0.00000  0.00000  0.00000  1
 W  W2  1  0.75000  0.25000  0.50000  1
