CIF file written using JARVIS-Tools package.
data_CaCrO3
_symmetry_space_group_name_H-M  'Pnma'
_cell_length_a       5.27724
_cell_length_b       5.35297
_cell_length_c       7.48374
_cell_angle_alpha    90
_cell_angle_beta     90
_cell_angle_gamma    90

_symmetry_Int_Tables_number  62
_chemical_formula_structural  CaCrO3
_chemical_formula_sum  Ca4Cr4O2
_cell_volume  211.40756246800441
_cell_formula_units_Z  4
loop_
  _symmetry_equiv_pos_site_id
 _symmetry_equiv_pos_as_xyz
 1  'x, y, z'
loop_
 _atom_site_type_symbol
 _atom_site_label
 _atom_site_symmetry_multiplicity
 _atom_site_fract_x
 _atom_site_fract_y
 _atom_site_fract_z
 _atom_site_fract_occupancy
 Ca  Ca1  1  0.99164  0.04214  0.25000  1
 Ca  Ca2  1  0.49164  0.45786  0.75000  1
 Ca  Ca3  1  0.50836  0.54214  0.25000  1
 Ca  Ca4  1  0.00836  0.95786  0.75000  1
 Cr  Cr1  1  0.50000  -0.00000  -0.00000  1
 Cr  Cr2  1  -0.00000  0.50000  -0.00000  1
 Cr  Cr3  1  0.00000  0.50000  0.50000  1
 Cr  Cr4  1  0.50000  -0.00001  0.50000  1
 O  O1  1  0.92738  0.51405  0.75000  1
 O  O2  1  0.29113  0.70979  0.53793  1
 O  O3  1  0.57262  0.01405  0.75000  1
 O  O4  1  0.07261  0.48595  0.25000  1
 O  O5  1  0.42739  0.98595  0.25000  1
 O  O6  1  0.70887  0.29021  0.03793  1
 O  O7  1  0.79114  0.79021  0.03793  1
 O  O8  1  0.29113  0.70979  0.96207  1
 O  O9  1  0.70886  0.29021  0.46207  1
 O  O10  1  0.20887  0.20979  0.96207  1
 O  O11  1  0.20886  0.20979  0.53793  1
 O  O12  1  0.79113  0.79021  0.46207  1
