CIF file written using JARVIS-Tools package.
data_Zn4InS6
_symmetry_space_group_name_H-M  'P-3m1'
_cell_length_a       3.83682
_cell_length_b       3.83682
_cell_length_c       18.1488
_cell_angle_alpha    90
_cell_angle_beta     90
_cell_angle_gamma    120

_symmetry_Int_Tables_number  164
_chemical_formula_structural  Zn4InS6
_chemical_formula_sum  Zn4InS6
_cell_volume  231.37763836717542
_cell_formula_units_Z  1
loop_
  _symmetry_equiv_pos_site_id
 _symmetry_equiv_pos_as_xyz
 1  'x, y, z'
loop_
 _atom_site_type_symbol
 _atom_site_label
 _atom_site_symmetry_multiplicity
 _atom_site_fract_x
 _atom_site_fract_y
 _atom_site_fract_z
 _atom_site_fract_occupancy
 In  In1  1  0.00000  0.00000  0.00000  1
 S  S1  1  0.33333  0.66667  0.07865  1
 S  S2  1  0.66667  0.33333  0.92135  1
 S  S3  1  0.33333  0.66667  0.74908  1
 S  S4  1  0.66667  0.33333  0.25092  1
 S  S5  1  0.33333  0.66667  0.42369  1
 S  S6  1  0.66667  0.33333  0.57631  1
 Zn  Zn1  1  0.33333  0.66667  0.20832  1
 Zn  Zn2  1  0.66667  0.33333  0.79168  1
 Zn  Zn3  1  0.33333  0.66667  0.61658  1
 Zn  Zn4  1  0.66667  0.33333  0.38342  1
