CIF file written using JARVIS-Tools package.
data_KMnIO6
_symmetry_space_group_name_H-M  'P312'
_cell_length_a       5.08351
_cell_length_b       5.08351
_cell_length_c       11.8384
_cell_angle_alpha    90
_cell_angle_beta     90
_cell_angle_gamma    120

_symmetry_Int_Tables_number  149
_chemical_formula_structural  KMnIO6
_chemical_formula_sum  K2Mn2I2O2
_cell_volume  264.9420203195475
_cell_formula_units_Z  2
loop_
  _symmetry_equiv_pos_site_id
 _symmetry_equiv_pos_as_xyz
 1  'x, y, z'
loop_
 _atom_site_type_symbol
 _atom_site_label
 _atom_site_symmetry_multiplicity
 _atom_site_fract_x
 _atom_site_fract_y
 _atom_site_fract_z
 _atom_site_fract_occupancy
 I  I1  1  0.00000  0.00000  0.00000  1
 I  I2  1  0.00000  0.00000  0.50000  1
 K  K1  1  0.66667  0.33333  0.25000  1
 K  K2  1  0.66667  0.33333  0.75000  1
 Mn  Mn1  1  0.33333  0.66667  0.50000  1
 Mn  Mn2  1  0.33333  0.66667  0.00000  1
 O  O1  1  0.04785  0.33502  0.40910  1
 O  O2  1  0.04785  0.33502  0.90910  1
 O  O3  1  0.04785  0.71283  0.09090  1
 O  O4  1  0.28717  0.95215  0.90910  1
 O  O5  1  0.28717  0.95215  0.40910  1
 O  O6  1  0.66498  0.71283  0.90910  1
 O  O7  1  0.66498  0.71283  0.40910  1
 O  O8  1  0.28717  0.33502  0.09090  1
 O  O9  1  0.66498  0.95215  0.09090  1
 O  O10  1  0.66498  0.95215  0.59090  1
 O  O11  1  0.28717  0.33502  0.59090  1
 O  O12  1  0.04785  0.71283  0.59090  1
