CIF file written using JARVIS-Tools package.
data_HoFeO3
_symmetry_space_group_name_H-M  'Pnma'
_cell_length_a       5.09469
_cell_length_b       5.53437
_cell_length_c       7.33864
_cell_angle_alpha    90
_cell_angle_beta     90
_cell_angle_gamma    90

_symmetry_Int_Tables_number  62
_chemical_formula_structural  HoFeO3
_chemical_formula_sum  Ho4Fe4O2
_cell_volume  206.91985464037754
_cell_formula_units_Z  4
loop_
  _symmetry_equiv_pos_site_id
 _symmetry_equiv_pos_as_xyz
 1  'x, y, z'
loop_
 _atom_site_type_symbol
 _atom_site_label
 _atom_site_symmetry_multiplicity
 _atom_site_fract_x
 _atom_site_fract_y
 _atom_site_fract_z
 _atom_site_fract_occupancy
 Fe  Fe1  1  0.00000  0.50000  0.50000  1
 Fe  Fe2  1  0.50000  0.00000  0.50000  1
 Fe  Fe3  1  0.50000  0.00000  0.00000  1
 Fe  Fe4  1  0.00000  0.50000  0.00000  1
 Ho  Ho1  1  0.02347  0.92280  0.75000  1
 Ho  Ho2  1  0.52347  0.57720  0.25000  1
 Ho  Ho3  1  0.47653  0.42280  0.75000  1
 Ho  Ho4  1  0.97653  0.07720  0.25000  1
 O  O1  1  0.68782  0.30332  0.44912  1
 O  O2  1  0.39672  0.96994  0.25000  1
 O  O3  1  0.81218  0.80332  0.05088  1
 O  O4  1  0.31218  0.69668  0.94912  1
 O  O5  1  0.18782  0.19668  0.55088  1
 O  O6  1  0.10328  0.46994  0.25000  1
 O  O7  1  0.18782  0.19668  0.94912  1
 O  O8  1  0.68782  0.30332  0.05088  1
 O  O9  1  0.31218  0.69668  0.55088  1
 O  O10  1  0.60328  0.03006  0.75000  1
 O  O11  1  0.81218  0.80332  0.44912  1
 O  O12  1  0.89672  0.53006  0.75000  1
