CIF file written using JARVIS-Tools package.
data_UAgF6
_symmetry_space_group_name_H-M  'P4_2/mcm'
_cell_length_a       5.29106
_cell_length_b       5.29106
_cell_length_c       9.19207
_cell_angle_alpha    90
_cell_angle_beta     90
_cell_angle_gamma    90

_symmetry_Int_Tables_number  132
_chemical_formula_structural  UAgF6
_chemical_formula_sum  U2Ag2F2
_cell_volume  257.33535790266535
_cell_formula_units_Z  2
loop_
  _symmetry_equiv_pos_site_id
 _symmetry_equiv_pos_as_xyz
 1  'x, y, z'
loop_
 _atom_site_type_symbol
 _atom_site_label
 _atom_site_symmetry_multiplicity
 _atom_site_fract_x
 _atom_site_fract_y
 _atom_site_fract_z
 _atom_site_fract_occupancy
 Ag  Ag1  1  0.50000  0.50000  0.25000  1
 Ag  Ag2  1  0.50000  0.50000  0.75000  1
 F  F1  1  0.28010  0.28010  0.00000  1
 F  F2  1  0.71990  0.71990  0.00000  1
 F  F3  1  0.71990  0.28010  0.50000  1
 F  F4  1  0.28010  0.71990  0.50000  1
 F  F5  1  0.20466  0.20466  0.34378  1
 F  F6  1  0.79534  0.79534  0.65622  1
 F  F7  1  0.79534  0.79534  0.34378  1
 F  F8  1  0.79534  0.20466  0.84378  1
 F  F9  1  0.79534  0.20466  0.15622  1
 F  F10  1  0.20466  0.20466  0.65622  1
 F  F11  1  0.20466  0.79534  0.15622  1
 F  F12  1  0.20466  0.79534  0.84378  1
 U  U1  1  0.00000  0.00000  0.00000  1
 U  U2  1  0.00000  0.00000  0.50000  1
