CIF file written using JARVIS-Tools package.
data_FeMoClO4
_symmetry_space_group_name_H-M  'P2_1/m'
_cell_length_a       4.69799
_cell_length_b       6.57334
_cell_length_c       6.57033
_cell_angle_alpha    90
_cell_angle_beta     90
_cell_angle_gamma    90.8064

_symmetry_Int_Tables_number  11
_chemical_formula_structural  FeMoClO4
_chemical_formula_sum  Fe2Mo2Cl2O8
_cell_volume  202.88138275235707
_cell_formula_units_Z  2
loop_
  _symmetry_equiv_pos_site_id
 _symmetry_equiv_pos_as_xyz
 1  'x, y, z'
loop_
 _atom_site_type_symbol
 _atom_site_label
 _atom_site_symmetry_multiplicity
 _atom_site_fract_x
 _atom_site_fract_y
 _atom_site_fract_z
 _atom_site_fract_occupancy
 Cl  Cl1  1  0.72741  0.22753  0.25000  1
 Cl  Cl2  1  0.27259  0.77247  0.75000  1
 Fe  Fe1  1  0.23499  0.25755  0.25000  1
 Fe  Fe2  1  0.76501  0.74245  0.75000  1
 Mo  Mo1  1  -0.00002  0.24830  0.75000  1
 Mo  Mo2  1  0.00002  0.75170  0.25000  1
 O  O1  1  0.22264  0.97301  0.25000  1
 O  O2  1  0.77736  0.02699  0.75000  1
 O  O3  1  0.23113  0.53825  0.25000  1
 O  O4  1  0.76887  0.46175  0.75000  1
 O  O5  1  0.77409  0.74167  0.46818  1
 O  O6  1  0.77409  0.74167  0.03182  1
 O  O7  1  0.22591  0.25833  0.96818  1
 O  O8  1  0.22591  0.25833  0.53182  1
