CIF file written using JARVIS-Tools package.
data_Y2OsC2
_symmetry_space_group_name_H-M  'Pnma'
_cell_length_a       5.12336
_cell_length_b       6.46048
_cell_length_c       9.78799
_cell_angle_alpha    90
_cell_angle_beta     90
_cell_angle_gamma    90

_symmetry_Int_Tables_number  62
_chemical_formula_structural  Y2OsC2
_chemical_formula_sum  Y8Os4C8
_cell_volume  323.9765557634146
_cell_formula_units_Z  4
loop_
  _symmetry_equiv_pos_site_id
 _symmetry_equiv_pos_as_xyz
 1  'x, y, z'
loop_
 _atom_site_type_symbol
 _atom_site_label
 _atom_site_symmetry_multiplicity
 _atom_site_fract_x
 _atom_site_fract_y
 _atom_site_fract_z
 _atom_site_fract_occupancy
 C  C1  1  0.25000  0.32491  0.44653  1
 C  C2  1  0.75000  0.17509  0.94653  1
 C  C3  1  0.25000  0.82491  0.05347  1
 C  C4  1  0.25000  0.95922  0.74207  1
 C  C5  1  0.75000  0.04078  0.25793  1
 C  C6  1  0.75000  0.54078  0.24207  1
 C  C7  1  0.25000  0.45922  0.75793  1
 C  C8  1  0.75000  0.67509  0.55347  1
 Os  Os1  1  0.25000  0.72308  0.86573  1
 Os  Os2  1  0.75000  0.27692  0.13427  1
 Os  Os3  1  0.75000  0.77692  0.36573  1
 Os  Os4  1  0.25000  0.22308  0.63427  1
 Y  Y1  1  0.25000  0.02647  0.28163  1
 Y  Y2  1  0.75000  0.97353  0.71837  1
 Y  Y3  1  0.75000  0.47353  0.78163  1
 Y  Y4  1  0.25000  0.52647  0.21837  1
 Y  Y5  1  0.25000  0.18289  0.94738  1
 Y  Y6  1  0.75000  0.81711  0.05262  1
 Y  Y7  1  0.75000  0.31711  0.44738  1
 Y  Y8  1  0.25000  0.68289  0.55262  1
