CIF file written using JARVIS-Tools package.
data_Tm2Al9Ir3
_symmetry_space_group_name_H-M  'Cmcm'
_cell_length_a       7.51583
_cell_length_b       7.51584
_cell_length_c       9.44941
_cell_angle_alpha    90
_cell_angle_beta     90
_cell_angle_gamma    119.578

_symmetry_Int_Tables_number  63
_chemical_formula_structural  Tm2Al9Ir3
_chemical_formula_sum  Tm4Al8Ir6
_cell_volume  464.2157511650805
_cell_formula_units_Z  2
loop_
  _symmetry_equiv_pos_site_id
 _symmetry_equiv_pos_as_xyz
 1  'x, y, z'
loop_
 _atom_site_type_symbol
 _atom_site_label
 _atom_site_symmetry_multiplicity
 _atom_site_fract_x
 _atom_site_fract_y
 _atom_site_fract_z
 _atom_site_fract_occupancy
 Al  Al1  1  0.66470  0.99928  0.57524  1
 Al  Al2  1  0.87122  0.87122  0.75000  1
 Al  Al3  1  0.00072  0.33530  0.07524  1
 Al  Al4  1  0.99928  0.66470  0.92476  1
 Al  Al5  1  0.99928  0.66470  0.57524  1
 Al  Al6  1  0.33530  0.00072  0.42476  1
 Al  Al7  1  0.00072  0.33530  0.42476  1
 Al  Al8  1  0.33530  0.00072  0.07524  1
 Al  Al9  1  0.33305  0.33305  0.55606  1
 Al  Al10  1  0.12878  0.12878  0.25000  1
 Al  Al11  1  0.66695  0.66695  0.44394  1
 Al  Al12  1  0.33305  0.33305  0.94394  1
 Al  Al13  1  0.33926  0.54911  0.25000  1
 Al  Al14  1  0.66074  0.45089  0.75000  1
 Al  Al15  1  0.54911  0.33926  0.25000  1
 Al  Al16  1  0.45089  0.66074  0.75000  1
 Al  Al17  1  0.66695  0.66695  0.05606  1
 Al  Al18  1  0.66470  0.99928  0.92476  1
 Ir  Ir1  1  0.00000  0.00000  0.00000  1
 Ir  Ir2  1  0.67209  0.32791  0.00000  1
 Ir  Ir3  1  0.32791  0.67209  0.00000  1
 Ir  Ir4  1  0.32791  0.67209  0.50000  1
 Ir  Ir5  1  0.00000  0.00000  0.50000  1
 Ir  Ir6  1  0.67209  0.32791  0.50000  1
 Tm  Tm1  1  0.32822  0.00430  0.75000  1
 Tm  Tm2  1  0.67178  0.99570  0.25000  1
 Tm  Tm3  1  0.00430  0.32822  0.75000  1
 Tm  Tm4  1  0.99570  0.67178  0.25000  1
