CIF file written using JARVIS-Tools package.
data_Sr2Co2O5
_symmetry_space_group_name_H-M  'Ima2'
_cell_length_a       9.06823
_cell_length_b       9.06823
_cell_length_c       9.06823
_cell_angle_alpha    145.784
_cell_angle_beta     145.698
_cell_angle_gamma    49.2318

_symmetry_Int_Tables_number  46
_chemical_formula_structural  Sr2Co2O5
_chemical_formula_sum  Sr4Co4O0
_cell_volume  235.2428381472702
_cell_formula_units_Z  2
loop_
  _symmetry_equiv_pos_site_id
 _symmetry_equiv_pos_as_xyz
 1  'x, y, z'
loop_
 _atom_site_type_symbol
 _atom_site_label
 _atom_site_symmetry_multiplicity
 _atom_site_fract_x
 _atom_site_fract_y
 _atom_site_fract_z
 _atom_site_fract_occupancy
 Co  Co1  1  0.50000  0.00968  0.50968  1
 Co  Co2  1  -0.00000  0.50968  0.50968  1
 Co  Co3  1  0.68024  0.22119  0.40143  1
 Co  Co4  1  0.31976  0.72119  0.54095  1
 O  O1  1  0.87452  0.37438  0.53693  1
 O  O2  1  0.62927  0.88275  0.01202  1
 O  O3  1  0.25160  0.26127  0.50825  1
 O  O4  1  0.74698  0.75666  0.50825  1
 O  O5  1  0.74840  0.25666  0.00968  1
 O  O6  1  0.66255  0.16241  0.53693  1
 O  O7  1  0.37073  0.38275  0.25348  1
 O  O8  1  0.12548  0.66241  0.49986  1
 O  O9  1  0.25302  0.76127  0.00968  1
 O  O10  1  0.33745  0.87438  0.49986  1
 Sr  Sr1  1  0.89525  0.90004  0.01584  1
 Sr  Sr2  1  0.10475  0.12058  0.00479  1
 Sr  Sr3  1  0.38421  0.40004  0.00479  1
 Sr  Sr4  1  0.61579  0.62058  0.01584  1
