CIF file written using JARVIS-Tools package.
data_VPO4
_symmetry_space_group_name_H-M  'Pnma'
_cell_length_a       4.76535
_cell_length_b       5.71441
_cell_length_c       9.85171
_cell_angle_alpha    90
_cell_angle_beta     90
_cell_angle_gamma    90

_symmetry_Int_Tables_number  62
_chemical_formula_structural  VPO4
_chemical_formula_sum  V4P4O6
_cell_volume  268.2738163813311
_cell_formula_units_Z  4
loop_
  _symmetry_equiv_pos_site_id
 _symmetry_equiv_pos_as_xyz
 1  'x, y, z'
loop_
 _atom_site_type_symbol
 _atom_site_label
 _atom_site_symmetry_multiplicity
 _atom_site_fract_x
 _atom_site_fract_y
 _atom_site_fract_z
 _atom_site_fract_occupancy
 O  O1  1  0.26068  0.95985  0.16600  1
 O  O2  1  0.20295  0.25000  0.88762  1
 O  O3  1  0.76068  0.45985  0.33400  1
 O  O4  1  0.26068  0.54015  0.16600  1
 O  O5  1  0.67916  0.25000  0.56224  1
 O  O6  1  0.73932  0.04015  0.83400  1
 O  O7  1  0.23932  0.54015  0.66600  1
 O  O8  1  0.23932  0.95985  0.66600  1
 O  O9  1  0.76068  0.04015  0.33400  1
 O  O10  1  0.79705  0.75000  0.11238  1
 O  O11  1  0.29705  0.25000  0.38762  1
 O  O12  1  0.32084  0.75000  0.43776  1
 O  O13  1  0.70295  0.75000  0.61238  1
 O  O14  1  0.17916  0.75000  0.93776  1
 O  O15  1  0.82084  0.25000  0.06224  1
 O  O16  1  0.73932  0.45985  0.83400  1
 P  P1  1  0.61169  0.25000  0.41175  1
 P  P2  1  0.88831  0.25000  0.91175  1
 P  P3  1  0.38831  0.75000  0.58825  1
 P  P4  1  0.11169  0.75000  0.08825  1
 V  V1  1  0.05060  0.25000  0.23024  1
 V  V2  1  0.44940  0.25000  0.73024  1
 V  V3  1  0.94940  0.75000  0.76976  1
 V  V4  1  0.55060  0.75000  0.26976  1
