CIF file written using JARVIS-Tools package.
data_KLaF4
_symmetry_space_group_name_H-M  'Pnma'
_cell_length_a       3.84031
_cell_length_b       6.33471
_cell_length_c       15.5685
_cell_angle_alpha    90
_cell_angle_beta     90
_cell_angle_gamma    90

_symmetry_Int_Tables_number  62
_chemical_formula_structural  KLaF4
_chemical_formula_sum  K4La4F6
_cell_volume  378.7380490886141
_cell_formula_units_Z  4
loop_
  _symmetry_equiv_pos_site_id
 _symmetry_equiv_pos_as_xyz
 1  'x, y, z'
loop_
 _atom_site_type_symbol
 _atom_site_label
 _atom_site_symmetry_multiplicity
 _atom_site_fract_x
 _atom_site_fract_y
 _atom_site_fract_z
 _atom_site_fract_occupancy
 F  F1  1  0.75000  0.99496  0.06022  1
 F  F2  1  0.25000  0.60158  0.86312  1
 F  F3  1  0.75000  0.39842  0.13688  1
 F  F4  1  0.75000  0.89842  0.36312  1
 F  F5  1  0.75000  0.91383  0.80211  1
 F  F6  1  0.25000  0.63902  0.03870  1
 F  F7  1  0.75000  0.36098  0.96130  1
 F  F8  1  0.25000  0.10158  0.63688  1
 F  F9  1  0.25000  0.13902  0.46130  1
 F  F10  1  0.25000  0.50504  0.56022  1
 F  F11  1  0.75000  0.49496  0.43978  1
 F  F12  1  0.25000  0.08617  0.19789  1
 F  F13  1  0.25000  0.00504  0.93978  1
 F  F14  1  0.25000  0.58617  0.30211  1
 F  F15  1  0.75000  0.41383  0.69789  1
 F  F16  1  0.75000  0.86098  0.53870  1
 K  K1  1  0.25000  0.22358  0.79831  1
 K  K2  1  0.75000  0.77642  0.20169  1
 K  K3  1  0.75000  0.27642  0.29831  1
 K  K4  1  0.25000  0.72358  0.70169  1
 La  La1  1  0.25000  0.75182  0.43722  1
 La  La2  1  0.75000  0.24818  0.56278  1
 La  La3  1  0.75000  0.74818  0.93722  1
 La  La4  1  0.25000  0.25182  0.06278  1
