CIF file written using JARVIS-Tools package.
data_KLaCuTe4
_symmetry_space_group_name_H-M  'P4/nmm'
_cell_length_a       4.48467
_cell_length_b       4.48467
_cell_length_c       21.2134
_cell_angle_alpha    90
_cell_angle_beta     90
_cell_angle_gamma    90

_symmetry_Int_Tables_number  129
_chemical_formula_structural  KLaCuTe4
_chemical_formula_sum  K2La2Cu2Te8
_cell_volume  426.6492569645546
_cell_formula_units_Z  2
loop_
  _symmetry_equiv_pos_site_id
 _symmetry_equiv_pos_as_xyz
 1  'x, y, z'
loop_
 _atom_site_type_symbol
 _atom_site_label
 _atom_site_symmetry_multiplicity
 _atom_site_fract_x
 _atom_site_fract_y
 _atom_site_fract_z
 _atom_site_fract_occupancy
 Cu  Cu1  1  0.00000  0.00000  0.00000  1
 Cu  Cu2  1  0.50000  0.50000  0.00000  1
 K  K1  1  0.00000  0.50000  0.14002  1
 K  K2  1  0.50000  0.00000  0.85998  1
 La  La1  1  0.00000  0.50000  0.60005  1
 La  La2  1  0.50000  0.00000  0.39995  1
 Te  Te1  1  0.00000  0.00000  0.72210  1
 Te  Te2  1  0.50000  0.50000  0.27790  1
 Te  Te3  1  0.00000  0.50000  0.44224  1
 Te  Te4  1  0.50000  0.00000  0.55776  1
 Te  Te5  1  0.00000  0.50000  0.92961  1
 Te  Te6  1  0.50000  0.00000  0.07039  1
 Te  Te7  1  0.00000  0.00000  0.27790  1
 Te  Te8  1  0.50000  0.50000  0.72210  1
