CIF file written using JARVIS-Tools package.
data_K2BaAs5
_symmetry_space_group_name_H-M  'Cmc2_1'
_cell_length_a       6.62006
_cell_length_b       6.62006
_cell_length_c       11.727
_cell_angle_alpha    90
_cell_angle_beta     90
_cell_angle_gamma    107.218

_symmetry_Int_Tables_number  36
_chemical_formula_structural  K2BaAs5
_chemical_formula_sum  K4Ba2As0
_cell_volume  490.90618480854846
_cell_formula_units_Z  2
loop_
  _symmetry_equiv_pos_site_id
 _symmetry_equiv_pos_as_xyz
 1  'x, y, z'
loop_
 _atom_site_type_symbol
 _atom_site_label
 _atom_site_symmetry_multiplicity
 _atom_site_fract_x
 _atom_site_fract_y
 _atom_site_fract_z
 _atom_site_fract_occupancy
 As  As1  1  0.30116  0.38188  0.76039  1
 As  As2  1  0.69884  0.61812  0.26039  1
 As  As3  1  0.38188  0.30116  0.26039  1
 As  As4  1  0.61812  0.69884  0.76039  1
 As  As5  1  0.94640  0.05360  0.50476  1
 As  As6  1  0.05360  0.94640  0.00476  1
 As  As7  1  0.10659  0.41467  0.58220  1
 As  As8  1  0.89341  0.58533  0.08220  1
 As  As9  1  0.41467  0.10659  0.08220  1
 As  As10  1  0.58533  0.89341  0.58220  1
 Ba  Ba1  1  0.60786  0.39214  0.52611  1
 Ba  Ba2  1  0.39214  0.60786  0.02611  1
 K  K1  1  0.76610  0.23390  0.85045  1
 K  K2  1  0.23390  0.76610  0.35045  1
 K  K3  1  0.85342  0.14658  0.22840  1
 K  K4  1  0.14658  0.85342  0.72840  1
