CIF file written using JARVIS-Tools package.
data_SnHI
_symmetry_space_group_name_H-M  'P4mm'
_cell_length_a       3.15922
_cell_length_b       3.15922
_cell_length_c       8.87509
_cell_angle_alpha    90
_cell_angle_beta     90
_cell_angle_gamma    90

_symmetry_Int_Tables_number  99
_chemical_formula_structural  SnHI
_chemical_formula_sum  SnHI
_cell_volume  88.57958391551279
_cell_formula_units_Z  1
loop_
  _symmetry_equiv_pos_site_id
 _symmetry_equiv_pos_as_xyz
 1  'x, y, z'
loop_
 _atom_site_type_symbol
 _atom_site_label
 _atom_site_symmetry_multiplicity
 _atom_site_fract_x
 _atom_site_fract_y
 _atom_site_fract_z
 _atom_site_fract_occupancy
 H  H1  1  0.00000  0.00000  0.25009  1
 I  I1  1  0.00000  0.00000  0.60323  1
 Sn  Sn1  1  0.00000  0.00000  0.04970  1
