CIF file written using JARVIS-Tools package.
data_Ti2Cr4Si5
_symmetry_space_group_name_H-M  'Ibam'
_cell_length_a       9.03625
_cell_length_b       9.03626
_cell_length_c       9.03625
_cell_angle_alpha    149.172
_cell_angle_beta     131.462
_cell_angle_gamma    58.6123

_symmetry_Int_Tables_number  72
_chemical_formula_structural  Ti2Cr4Si5
_chemical_formula_sum  Ti4Cr8Si0
_cell_volume  281.1635735481556
_cell_formula_units_Z  2
loop_
  _symmetry_equiv_pos_site_id
 _symmetry_equiv_pos_as_xyz
 1  'x, y, z'
loop_
 _atom_site_type_symbol
 _atom_site_label
 _atom_site_symmetry_multiplicity
 _atom_site_fract_x
 _atom_site_fract_y
 _atom_site_fract_z
 _atom_site_fract_occupancy
 Cr  Cr1  1  0.30774  0.55774  0.25000  1
 Cr  Cr2  1  0.18853  0.43658  0.75195  1
 Cr  Cr3  1  0.68464  0.93658  0.74805  1
 Cr  Cr4  1  0.31536  0.06342  0.25195  1
 Cr  Cr5  1  0.81147  0.56342  0.24805  1
 Cr  Cr6  1  0.69226  0.94226  0.25000  1
 Cr  Cr7  1  0.69226  0.44226  0.75000  1
 Cr  Cr8  1  0.30774  0.05774  0.75000  1
 Si  Si1  1  0.51771  0.43524  0.08247  1
 Si  Si2  1  -0.00000  0.75000  0.75000  1
 Si  Si3  1  -0.00000  0.25000  0.25000  1
 Si  Si4  1  0.99440  0.28799  0.70641  1
 Si  Si5  1  0.00560  0.71201  0.29359  1
 Si  Si6  1  0.58158  0.78799  0.79359  1
 Si  Si7  1  0.64722  0.06476  0.58247  1
 Si  Si8  1  0.35278  0.93524  0.41753  1
 Si  Si9  1  0.48229  0.56476  0.91753  1
 Si  Si10  1  0.41842  0.21201  0.20641  1
 Ti  Ti1  1  0.02673  0.14191  0.88482  1
 Ti  Ti2  1  0.97327  0.85809  0.11518  1
 Ti  Ti3  1  0.25708  0.64191  0.61518  1
 Ti  Ti4  1  0.74292  0.35809  0.38482  1
