CIF file written using JARVIS-Tools package.
data_Co2TeCl2O3
_symmetry_space_group_name_H-M  'P2_1/m'
_cell_length_a       6.68046
_cell_length_b       5.06707
_cell_length_c       8.00889
_cell_angle_alpha    75.0156
_cell_angle_beta     90
_cell_angle_gamma    90

_symmetry_Int_Tables_number  11
_chemical_formula_structural  Co2TeCl2O3
_chemical_formula_sum  Co4Te2Cl4O6
_cell_volume  261.8847437730899
_cell_formula_units_Z  2
loop_
  _symmetry_equiv_pos_site_id
 _symmetry_equiv_pos_as_xyz
 1  'x, y, z'
loop_
 _atom_site_type_symbol
 _atom_site_label
 _atom_site_symmetry_multiplicity
 _atom_site_fract_x
 _atom_site_fract_y
 _atom_site_fract_z
 _atom_site_fract_occupancy
 Cl  Cl1  1  0.25000  0.84012  0.49957  1
 Cl  Cl2  1  0.25000  0.26663  0.79385  1
 Cl  Cl3  1  0.75000  0.73337  0.20615  1
 Cl  Cl4  1  0.75000  0.15988  0.50043  1
 Co  Co1  1  0.25000  0.74763  0.80302  1
 Co  Co2  1  0.75000  0.25237  0.19698  1
 Co  Co3  1  0.50000  0.00000  0.00000  1
 Co  Co4  1  0.00000  0.00000  0.00000  1
 O  O1  1  0.03857  0.23545  0.16322  1
 O  O2  1  0.53857  0.76455  0.83678  1
 O  O3  1  0.96143  0.76455  0.83678  1
 O  O4  1  0.75000  0.25674  0.92215  1
 O  O5  1  0.25000  0.74326  0.07785  1
 O  O6  1  0.46143  0.23545  0.16322  1
 Te  Te1  1  0.75000  0.60237  0.73535  1
 Te  Te2  1  0.25000  0.39763  0.26465  1
