CIF file written using JARVIS-Tools package.
data_Hf2Cr4Si5
_symmetry_space_group_name_H-M  'Ibam'
_cell_length_a       9.2021
_cell_length_b       9.2021
_cell_length_c       9.2021
_cell_angle_alpha    148.866
_cell_angle_beta     131.443
_cell_angle_gamma    58.8131

_symmetry_Int_Tables_number  72
_chemical_formula_structural  Hf2Cr4Si5
_chemical_formula_sum  Hf4Cr8Si0
_cell_volume  299.6211558014046
_cell_formula_units_Z  2
loop_
  _symmetry_equiv_pos_site_id
 _symmetry_equiv_pos_as_xyz
 1  'x, y, z'
loop_
 _atom_site_type_symbol
 _atom_site_label
 _atom_site_symmetry_multiplicity
 _atom_site_fract_x
 _atom_site_fract_y
 _atom_site_fract_z
 _atom_site_fract_occupancy
 Cr  Cr1  1  0.30782  0.55782  0.25000  1
 Cr  Cr2  1  0.30782  0.05782  0.75000  1
 Cr  Cr3  1  0.69218  0.44218  0.75000  1
 Cr  Cr4  1  0.69218  0.94218  0.25000  1
 Cr  Cr5  1  0.18991  0.43817  0.75174  1
 Cr  Cr6  1  0.68643  0.93817  0.74826  1
 Cr  Cr7  1  0.31357  0.06183  0.25174  1
 Cr  Cr8  1  0.81009  0.56183  0.24826  1
 Hf  Hf1  1  0.73777  0.35849  0.37928  1
 Hf  Hf2  1  0.97921  0.85849  0.12072  1
 Hf  Hf3  1  0.26223  0.64151  0.62072  1
 Hf  Hf4  1  0.02079  0.14151  0.87928  1
 Si  Si1  1  0.49095  0.56460  0.92635  1
 Si  Si2  1  0.36175  0.93540  0.42635  1
 Si  Si3  1  0.41900  0.21061  0.20839  1
 Si  Si4  1  0.58100  0.78939  0.79161  1
 Si  Si5  1  0.00222  0.71061  0.29161  1
 Si  Si6  1  0.99778  0.28939  0.70839  1
 Si  Si7  1  -0.00000  0.25000  0.25000  1
 Si  Si8  1  -0.00000  0.75000  0.75000  1
 Si  Si9  1  0.50905  0.43540  0.07365  1
 Si  Si10  1  0.63825  0.06460  0.57365  1
