CIF file written using JARVIS-Tools package.
data_MnAsO4
_symmetry_space_group_name_H-M  'P2_1/c'
_cell_length_a       4.81825
_cell_length_b       6.66142
_cell_length_c       9.05281
_cell_angle_alpha    90
_cell_angle_beta     90
_cell_angle_gamma    93.7006

_symmetry_Int_Tables_number  14
_chemical_formula_structural  MnAsO4
_chemical_formula_sum  Mn4As4O6
_cell_volume  289.95680387110934
_cell_formula_units_Z  4
loop_
  _symmetry_equiv_pos_site_id
 _symmetry_equiv_pos_as_xyz
 1  'x, y, z'
loop_
 _atom_site_type_symbol
 _atom_site_label
 _atom_site_symmetry_multiplicity
 _atom_site_fract_x
 _atom_site_fract_y
 _atom_site_fract_z
 _atom_site_fract_occupancy
 As  As1  1  0.96521  0.78016  0.31913  1
 As  As2  1  0.46521  0.28016  0.18087  1
 As  As3  1  0.03479  0.21984  0.68087  1
 As  As4  1  0.53479  0.71984  0.81913  1
 Mn  Mn1  1  0.50000  0.50000  0.50000  1
 Mn  Mn2  1  0.00000  0.00000  0.00000  1
 Mn  Mn3  1  0.00000  0.50000  0.00000  1
 Mn  Mn4  1  0.50000  0.00000  0.50000  1
 O  O1  1  0.30974  0.05508  0.12241  1
 O  O2  1  0.68534  0.50678  0.87739  1
 O  O3  1  0.19026  0.44492  0.62241  1
 O  O4  1  0.40591  0.27078  0.37226  1
 O  O5  1  0.80711  0.28321  0.12168  1
 O  O6  1  0.59409  0.72922  0.62774  1
 O  O7  1  0.69289  0.21679  0.62168  1
 O  O8  1  0.80974  0.55508  0.37759  1
 O  O9  1  0.69026  0.94492  0.87759  1
 O  O10  1  0.18534  0.00678  0.62261  1
 O  O11  1  0.09409  0.22922  0.87226  1
 O  O12  1  0.19289  0.71679  0.87832  1
 O  O13  1  0.81466  0.99322  0.37739  1
 O  O14  1  0.30711  0.78321  0.37832  1
 O  O15  1  0.90591  0.77078  0.12774  1
 O  O16  1  0.31466  0.49322  0.12261  1
