CIF file written using JARVIS-Tools package.
data_TeRh2O6
_symmetry_space_group_name_H-M  'P4_2/mnm'
_cell_length_a       4.64818
_cell_length_b       4.64818
_cell_length_c       9.54446
_cell_angle_alpha    90
_cell_angle_beta     90
_cell_angle_gamma    90

_symmetry_Int_Tables_number  136
_chemical_formula_structural  TeRh2O6
_chemical_formula_sum  Te2Rh4O2
_cell_volume  206.2131873905044
_cell_formula_units_Z  2
loop_
  _symmetry_equiv_pos_site_id
 _symmetry_equiv_pos_as_xyz
 1  'x, y, z'
loop_
 _atom_site_type_symbol
 _atom_site_label
 _atom_site_symmetry_multiplicity
 _atom_site_fract_x
 _atom_site_fract_y
 _atom_site_fract_z
 _atom_site_fract_occupancy
 O  O1  1  0.19567  0.80433  0.83101  1
 O  O2  1  0.31211  0.31211  0.00000  1
 O  O3  1  0.68789  0.68789  0.00000  1
 O  O4  1  0.80433  0.19567  0.16899  1
 O  O5  1  0.81211  0.18789  0.50000  1
 O  O6  1  0.18789  0.81211  0.50000  1
 O  O7  1  0.69567  0.69567  0.66899  1
 O  O8  1  0.69567  0.69567  0.33101  1
 O  O9  1  0.80433  0.19567  0.83101  1
 O  O10  1  0.19567  0.80433  0.16899  1
 O  O11  1  0.30433  0.30433  0.66899  1
 O  O12  1  0.30433  0.30433  0.33101  1
 Rh  Rh1  1  0.50000  0.50000  0.16762  1
 Rh  Rh2  1  0.50000  0.50000  0.83238  1
 Rh  Rh3  1  0.00000  0.00000  0.66762  1
 Rh  Rh4  1  0.00000  0.00000  0.33238  1
 Te  Te1  1  0.50000  0.50000  0.50000  1
 Te  Te2  1  0.00000  0.00000  0.00000  1
