CIF file written using JARVIS-Tools package.
data_Ti5Cu2
_symmetry_space_group_name_H-M  'Pbam'
_cell_length_a       2.90082
_cell_length_b       12.2984
_cell_length_c       12.4326
_cell_angle_alpha    90
_cell_angle_beta     90
_cell_angle_gamma    90

_symmetry_Int_Tables_number  55
_chemical_formula_structural  Ti5Cu2
_chemical_formula_sum  Ti20Cu8
_cell_volume  443.5373668199384
_cell_formula_units_Z  4
loop_
  _symmetry_equiv_pos_site_id
 _symmetry_equiv_pos_as_xyz
 1  'x, y, z'
loop_
 _atom_site_type_symbol
 _atom_site_label
 _atom_site_symmetry_multiplicity
 _atom_site_fract_x
 _atom_site_fract_y
 _atom_site_fract_z
 _atom_site_fract_occupancy
 Cu  Cu1  1  0.50000  0.63331  0.27490  1
 Cu  Cu2  1  0.50000  0.86669  0.77490  1
 Cu  Cu3  1  0.00000  0.74095  0.11833  1
 Cu  Cu4  1  0.00000  0.25905  0.88167  1
 Cu  Cu5  1  0.00000  0.24095  0.38167  1
 Cu  Cu6  1  0.00000  0.75905  0.61833  1
 Cu  Cu7  1  0.50000  0.36669  0.72510  1
 Cu  Cu8  1  0.50000  0.13331  0.22510  1
 Ti  Ti1  1  0.50000  0.42752  0.35116  1
 Ti  Ti2  1  0.50000  0.92752  0.14884  1
 Ti  Ti3  1  0.50000  0.07248  0.85116  1
 Ti  Ti4  1  0.50000  0.37913  0.00967  1
 Ti  Ti5  1  0.50000  0.57248  0.64884  1
 Ti  Ti6  1  0.50000  0.87913  0.49033  1
 Ti  Ti7  1  0.50000  0.62087  -0.00967  1
 Ti  Ti8  1  0.00000  0.98964  0.64997  1
 Ti  Ti9  1  0.00000  0.30305  0.18742  1
 Ti  Ti10  1  0.00000  0.48964  0.85003  1
 Ti  Ti11  1  0.00000  0.51036  0.14997  1
 Ti  Ti12  1  0.00000  0.69695  0.81258  1
 Ti  Ti13  1  0.00000  0.19695  0.68742  1
 Ti  Ti14  1  0.00000  0.80305  0.31258  1
 Ti  Ti15  1  0.00000  0.88915  0.95994  1
 Ti  Ti16  1  0.00000  0.11085  0.04006  1
 Ti  Ti17  1  0.00000  0.38915  0.54006  1
 Ti  Ti18  1  0.00000  0.61085  0.45994  1
 Ti  Ti19  1  0.00000  0.01036  0.35003  1
 Ti  Ti20  1  0.50000  0.12087  0.50967  1
