CIF file written using JARVIS-Tools package.
data_CeRhO3
_symmetry_space_group_name_H-M  'Pnma'
_cell_length_a       5.35794
_cell_length_b       6.07898
_cell_length_c       7.56297
_cell_angle_alpha    90
_cell_angle_beta     90
_cell_angle_gamma    90

_symmetry_Int_Tables_number  62
_chemical_formula_structural  CeRhO3
_chemical_formula_sum  Ce4Rh4O2
_cell_volume  246.3317529590273
_cell_formula_units_Z  4
loop_
  _symmetry_equiv_pos_site_id
 _symmetry_equiv_pos_as_xyz
 1  'x, y, z'
loop_
 _atom_site_type_symbol
 _atom_site_label
 _atom_site_symmetry_multiplicity
 _atom_site_fract_x
 _atom_site_fract_y
 _atom_site_fract_z
 _atom_site_fract_occupancy
 Ce  Ce1  1  0.03319  0.40917  0.25000  1
 Ce  Ce2  1  0.96681  0.59083  0.75000  1
 Ce  Ce3  1  0.53319  0.09083  0.75000  1
 Ce  Ce4  1  0.46681  0.90917  0.25000  1
 O  O1  1  0.32879  0.18907  0.05867  1
 O  O2  1  0.13682  0.94741  0.75000  1
 O  O3  1  0.82879  0.31093  0.94133  1
 O  O4  1  0.67121  0.81093  0.55867  1
 O  O5  1  0.67121  0.81093  0.94133  1
 O  O6  1  0.32879  0.18907  0.44133  1
 O  O7  1  0.17121  0.68907  0.44133  1
 O  O8  1  0.63682  0.55259  0.25000  1
 O  O9  1  0.17121  0.68907  0.05867  1
 O  O10  1  0.36318  0.44741  0.75000  1
 O  O11  1  0.82879  0.31093  0.55867  1
 O  O12  1  0.86318  0.05259  0.25000  1
 Rh  Rh1  1  0.50000  0.50000  0.50000  1
 Rh  Rh2  1  0.00000  0.00000  0.50000  1
 Rh  Rh3  1  0.50000  0.50000  0.00000  1
 Rh  Rh4  1  0.00000  0.00000  0.00000  1
