CIF file written using JARVIS-Tools package.
data_Zr3Mn8Si
_symmetry_space_group_name_H-M  'P3m1'
_cell_length_a       4.82572
_cell_length_b       4.82572
_cell_length_c       8.00893
_cell_angle_alpha    90
_cell_angle_beta     90
_cell_angle_gamma    120

_symmetry_Int_Tables_number  156
_chemical_formula_structural  Zr3Mn8Si
_chemical_formula_sum  Zr3Mn8Si
_cell_volume  161.52117596776128
_cell_formula_units_Z  1
loop_
  _symmetry_equiv_pos_site_id
 _symmetry_equiv_pos_as_xyz
 1  'x, y, z'
loop_
 _atom_site_type_symbol
 _atom_site_label
 _atom_site_symmetry_multiplicity
 _atom_site_fract_x
 _atom_site_fract_y
 _atom_site_fract_z
 _atom_site_fract_occupancy
 Mn  Mn1  1  0.66667  0.33333  0.49828  1
 Mn  Mn2  1  0.66667  0.33333  0.98887  1
 Mn  Mn3  1  0.49585  0.50415  0.25610  1
 Mn  Mn4  1  0.49585  0.99171  0.25610  1
 Mn  Mn5  1  0.00829  0.50415  0.25610  1
 Mn  Mn6  1  0.84096  0.15904  0.74479  1
 Mn  Mn7  1  0.84096  0.68193  0.74479  1
 Mn  Mn8  1  0.31807  0.15904  0.74479  1
 Si  Si1  1  0.00000  0.00000  0.43931  1
 Zr  Zr1  1  0.33333  0.66667  0.55616  1
 Zr  Zr2  1  0.33333  0.66667  0.93533  1
 Zr  Zr3  1  0.00000  0.00000  0.07945  1
