CIF file written using JARVIS-Tools package.
data_BaZn2Cu2As3
_symmetry_space_group_name_H-M  'Cmcm'
_cell_length_a       6.68358
_cell_length_b       6.68359
_cell_length_c       12.245
_cell_angle_alpha    90
_cell_angle_beta     90
_cell_angle_gamma    143.231

_symmetry_Int_Tables_number  63
_chemical_formula_structural  BaZn2Cu2As3
_chemical_formula_sum  Ba2Zn4Cu4As6
_cell_volume  327.42462032847897
_cell_formula_units_Z  2
loop_
  _symmetry_equiv_pos_site_id
 _symmetry_equiv_pos_as_xyz
 1  'x, y, z'
loop_
 _atom_site_type_symbol
 _atom_site_label
 _atom_site_symmetry_multiplicity
 _atom_site_fract_x
 _atom_site_fract_y
 _atom_site_fract_z
 _atom_site_fract_occupancy
 As  As1  1  0.62344  0.37656  0.04607  1
 As  As2  1  0.37656  0.62344  0.95393  1
 As  As3  1  0.37656  0.62344  0.54607  1
 As  As4  1  0.62344  0.37656  0.45393  1
 As  As5  1  0.90536  0.09464  0.25000  1
 As  As6  1  0.09464  0.90536  0.75000  1
 Ba  Ba1  1  0.17876  0.82124  0.25000  1
 Ba  Ba2  1  0.82124  0.17876  0.75000  1
 Cu  Cu1  1  0.45491  0.54509  0.14511  1
 Cu  Cu2  1  0.54509  0.45491  0.85489  1
 Cu  Cu3  1  0.54509  0.45491  0.64511  1
 Cu  Cu4  1  0.45491  0.54509  0.35489  1
 Zn  Zn1  1  0.83169  0.16831  0.05738  1
 Zn  Zn2  1  0.16831  0.83169  0.94262  1
 Zn  Zn3  1  0.16831  0.83169  0.55738  1
 Zn  Zn4  1  0.83169  0.16831  0.44262  1
