CIF file written using JARVIS-Tools package.
data_Ti4FeCoS8
_symmetry_space_group_name_H-M  'P-1'
_cell_length_a       5.82672
_cell_length_b       6.45707
_cell_length_c       6.76296
_cell_angle_alpha    105.191
_cell_angle_beta     89.9937
_cell_angle_gamma    116.249

_symmetry_Int_Tables_number  2
_chemical_formula_structural  Ti4FeCoS8
_chemical_formula_sum  Ti4FeCoS8
_cell_volume  218.25502406790224
_cell_formula_units_Z  1
loop_
  _symmetry_equiv_pos_site_id
 _symmetry_equiv_pos_as_xyz
 1  'x, y, z'
loop_
 _atom_site_type_symbol
 _atom_site_label
 _atom_site_symmetry_multiplicity
 _atom_site_fract_x
 _atom_site_fract_y
 _atom_site_fract_z
 _atom_site_fract_occupancy
 Co  Co1  1  -0.00000  0.50000  0.50000  1
 Fe  Fe1  1  -0.00000  0.50000  0.00000  1
 S  S1  1  0.95880  0.73851  0.30725  1
 S  S2  1  0.44237  0.72603  0.05661  1
 S  S3  1  0.95925  0.73730  0.81166  1
 S  S4  1  0.44397  0.72716  0.55655  1
 S  S5  1  0.04075  0.26270  0.18834  1
 S  S6  1  0.55763  0.27397  0.94339  1
 S  S7  1  0.04120  0.26149  0.69275  1
 S  S8  1  0.55603  0.27284  0.44345  1
 Ti  Ti1  1  0.73425  0.98706  0.37268  1
 Ti  Ti2  1  0.26575  0.01294  0.62732  1
 Ti  Ti3  1  0.73344  0.98596  0.87017  1
 Ti  Ti4  1  0.26656  0.01404  0.12983  1
