CIF file written using JARVIS-Tools package.
data_Sm2NiPtO6
_symmetry_space_group_name_H-M  'P2_1/c'
_cell_length_a       5.82058
_cell_length_b       5.35503
_cell_length_c       9.39789
_cell_angle_alpha    55.1239
_cell_angle_beta     90
_cell_angle_gamma    90

_symmetry_Int_Tables_number  14
_chemical_formula_structural  Sm2NiPtO6
_chemical_formula_sum  Sm4Ni2Pt2O2
_cell_volume  240.31429775574983
_cell_formula_units_Z  2
loop_
  _symmetry_equiv_pos_site_id
 _symmetry_equiv_pos_as_xyz
 1  'x, y, z'
loop_
 _atom_site_type_symbol
 _atom_site_label
 _atom_site_symmetry_multiplicity
 _atom_site_fract_x
 _atom_site_fract_y
 _atom_site_fract_z
 _atom_site_fract_occupancy
 Ni  Ni1  1  0.00000  0.50000  0.50000  1
 Ni  Ni2  1  0.50000  0.50000  -0.00000  1
 O  O1  1  0.19486  0.73988  0.94569  1
 O  O2  1  0.03728  0.36514  0.74741  1
 O  O3  1  0.69486  0.26012  0.55431  1
 O  O4  1  0.53728  0.63486  0.75259  1
 O  O5  1  0.46272  0.36514  0.24741  1
 O  O6  1  0.96272  0.63486  0.25259  1
 O  O7  1  0.30411  0.12998  0.05452  1
 O  O8  1  0.19589  0.12998  0.55452  1
 O  O9  1  0.30514  0.73988  0.44569  1
 O  O10  1  0.69589  0.87002  0.94548  1
 O  O11  1  0.80514  0.26012  0.05431  1
 O  O12  1  0.80411  0.87002  0.44548  1
 Pt  Pt1  1  0.50000  0.00000  0.50000  1
 Pt  Pt2  1  0.00000  0.00000  0.00000  1
 Sm  Sm1  1  0.07768  0.22681  0.24953  1
 Sm  Sm2  1  0.92232  0.77319  0.75047  1
 Sm  Sm3  1  0.57768  0.77319  0.25047  1
 Sm  Sm4  1  0.42232  0.22681  0.74953  1
