CIF file written using JARVIS-Tools package.
data_Li2VCrO4
_symmetry_space_group_name_H-M  'P2/c'
_cell_length_a       5.92959
_cell_length_b       5.07729
_cell_length_c       5.01305
_cell_angle_alpha    71.1167
_cell_angle_beta     90
_cell_angle_gamma    90

_symmetry_Int_Tables_number  13
_chemical_formula_structural  Li2VCrO4
_chemical_formula_sum  Li4V2Cr2O8
_cell_volume  142.8014075840986
_cell_formula_units_Z  2
loop_
  _symmetry_equiv_pos_site_id
 _symmetry_equiv_pos_as_xyz
 1  'x, y, z'
loop_
 _atom_site_type_symbol
 _atom_site_label
 _atom_site_symmetry_multiplicity
 _atom_site_fract_x
 _atom_site_fract_y
 _atom_site_fract_z
 _atom_site_fract_occupancy
 Cr  Cr1  1  0.37921  0.50000  0.75000  1
 Cr  Cr2  1  0.62079  0.50000  0.25000  1
 Li  Li1  1  0.13348  -0.00000  0.75000  1
 Li  Li2  1  0.62411  -0.00000  0.75000  1
 Li  Li3  1  0.37589  -0.00000  0.25000  1
 Li  Li4  1  0.86652  -0.00000  0.25000  1
 O  O1  1  0.13234  0.73261  0.50976  1
 O  O2  1  0.62486  0.72568  0.50949  1
 O  O3  1  0.37514  0.27432  0.49051  1
 O  O4  1  0.37514  0.72568  0.00949  1
 O  O5  1  0.86766  0.26739  0.49024  1
 O  O6  1  0.13234  0.26739  0.99024  1
 O  O7  1  0.86766  0.73261  0.00976  1
 O  O8  1  0.62486  0.27432  0.99051  1
 V  V1  1  0.88293  0.50000  0.75000  1
 V  V2  1  0.11707  0.50000  0.25000  1
