CIF file written using JARVIS-Tools package.
data_LiNiOF
_symmetry_space_group_name_H-M  'P4/nmm'
_cell_length_a       2.8996
_cell_length_b       2.8996
_cell_length_c       16.6431
_cell_angle_alpha    90
_cell_angle_beta     90
_cell_angle_gamma    90

_symmetry_Int_Tables_number  129
_chemical_formula_structural  LiNiOF
_chemical_formula_sum  Li4Ni4O4F4
_cell_volume  139.93009843042879
_cell_formula_units_Z  4
loop_
  _symmetry_equiv_pos_site_id
 _symmetry_equiv_pos_as_xyz
 1  'x, y, z'
loop_
 _atom_site_type_symbol
 _atom_site_label
 _atom_site_symmetry_multiplicity
 _atom_site_fract_x
 _atom_site_fract_y
 _atom_site_fract_z
 _atom_site_fract_occupancy
 F  F1  1  0.50000  0.00000  0.32282  1
 F  F2  1  0.00000  0.50000  0.44027  1
 F  F3  1  0.50000  0.00000  0.55973  1
 F  F4  1  0.00000  0.50000  0.67718  1
 Li  Li1  1  0.00000  0.50000  0.31919  1
 Li  Li2  1  0.50000  0.00000  0.44118  1
 Li  Li3  1  0.00000  0.50000  0.55882  1
 Li  Li4  1  0.50000  0.00000  0.68081  1
 Ni  Ni1  1  0.00000  0.50000  0.81052  1
 Ni  Ni2  1  0.50000  0.00000  0.93569  1
 Ni  Ni3  1  0.00000  0.50000  0.06431  1
 Ni  Ni4  1  0.50000  0.00000  0.18948  1
 O  O1  1  0.50000  0.00000  0.80938  1
 O  O2  1  0.00000  0.50000  0.93878  1
 O  O3  1  0.50000  0.00000  0.06122  1
 O  O4  1  0.00000  0.50000  0.19062  1
