CIF file written using JARVIS-Tools package.
data_Ta2TiO6
_symmetry_space_group_name_H-M  'C2/m'
_cell_length_a       5.67566
_cell_length_b       5.67566
_cell_length_c       7.41014
_cell_angle_alpha    70.5475
_cell_angle_beta     70.5475
_cell_angle_gamma    74.0786

_symmetry_Int_Tables_number  12
_chemical_formula_structural  Ta2TiO6
_chemical_formula_sum  Ta4Ti2O2
_cell_volume  208.61497500017038
_cell_formula_units_Z  2
loop_
  _symmetry_equiv_pos_site_id
 _symmetry_equiv_pos_as_xyz
 1  'x, y, z'
loop_
 _atom_site_type_symbol
 _atom_site_label
 _atom_site_symmetry_multiplicity
 _atom_site_fract_x
 _atom_site_fract_y
 _atom_site_fract_z
 _atom_site_fract_occupancy
 O  O1  1  0.29981  0.70019  0.00000  1
 O  O2  1  0.22999  0.22999  0.96938  1
 O  O3  1  0.56510  0.56510  0.64398  1
 O  O4  1  0.70019  0.29981  -0.00000  1
 O  O5  1  0.43490  0.43490  0.35602  1
 O  O6  1  0.90579  0.90579  0.29722  1
 O  O7  1  0.09421  0.09421  0.70278  1
 O  O8  1  0.96008  0.38347  0.33020  1
 O  O9  1  0.03992  0.61653  0.66980  1
 O  O10  1  0.61653  0.03992  0.66980  1
 O  O11  1  0.38347  0.96008  0.33020  1
 O  O12  1  0.77001  0.77001  0.03062  1
 Ta  Ta1  1  0.00000  0.00000  0.00000  1
 Ta  Ta2  1  -0.00000  -0.00000  0.50000  1
 Ta  Ta3  1  0.67887  0.67887  0.82243  1
 Ta  Ta4  1  0.32113  0.32113  0.17757  1
 Ti  Ti1  1  0.65349  0.65349  0.34924  1
 Ti  Ti2  1  0.34651  0.34651  0.65076  1
