CIF file written using JARVIS-Tools package.
data_Sr4FeMoO8
_symmetry_space_group_name_H-M  'Cmmm'
_cell_length_a       6.9728
_cell_length_b       6.97279
_cell_length_c       5.37941
_cell_angle_alpha    90
_cell_angle_beta     90
_cell_angle_gamma    134.534

_symmetry_Int_Tables_number  65
_chemical_formula_structural  Sr4FeMoO8
_chemical_formula_sum  Sr4FeMoO8
_cell_volume  186.43968859091973
_cell_formula_units_Z  1
loop_
  _symmetry_equiv_pos_site_id
 _symmetry_equiv_pos_as_xyz
 1  'x, y, z'
loop_
 _atom_site_type_symbol
 _atom_site_label
 _atom_site_symmetry_multiplicity
 _atom_site_fract_x
 _atom_site_fract_y
 _atom_site_fract_z
 _atom_site_fract_occupancy
 Fe  Fe1  1  0.00000  0.00000  0.00000  1
 Mo  Mo1  1  0.50000  0.50000  0.50000  1
 O  O1  1  0.16092  0.83908  0.00000  1
 O  O2  1  0.65949  0.34051  0.50000  1
 O  O3  1  0.34051  0.65949  0.50000  1
 O  O4  1  0.83908  0.16092  0.00000  1
 O  O5  1  0.24835  0.24835  0.24861  1
 O  O6  1  0.75165  0.75165  0.75139  1
 O  O7  1  0.24835  0.24835  0.75139  1
 O  O8  1  0.75165  0.75165  0.24861  1
 Sr  Sr1  1  0.35108  0.64892  0.00000  1
 Sr  Sr2  1  0.85407  0.14593  0.50000  1
 Sr  Sr3  1  0.14593  0.85407  0.50000  1
 Sr  Sr4  1  0.64892  0.35108  0.00000  1
