CIF file written using JARVIS-Tools package.
data_NpF6
_symmetry_space_group_name_H-M  'Pnma'
_cell_length_a       5.04373
_cell_length_b       8.7047
_cell_length_c       9.54658
_cell_angle_alpha    90
_cell_angle_beta     90
_cell_angle_gamma    90

_symmetry_Int_Tables_number  62
_chemical_formula_structural  NpF6
_chemical_formula_sum  Np4F24
_cell_volume  419.13493668958756
_cell_formula_units_Z  4
loop_
  _symmetry_equiv_pos_site_id
 _symmetry_equiv_pos_as_xyz
 1  'x, y, z'
loop_
 _atom_site_type_symbol
 _atom_site_label
 _atom_site_symmetry_multiplicity
 _atom_site_fract_x
 _atom_site_fract_y
 _atom_site_fract_z
 _atom_site_fract_occupancy
 F  F1  1  0.74292  0.58724  0.00558  1
 F  F2  1  0.24621  0.75000  0.50645  1
 F  F3  1  0.75379  0.25000  0.49355  1
 F  F4  1  0.74621  0.25000  0.99355  1
 F  F5  1  0.25379  0.75000  0.00645  1
 F  F6  1  0.59420  0.75000  0.75018  1
 F  F7  1  0.40580  0.25000  0.24982  1
 F  F8  1  0.09420  0.25000  0.74982  1
 F  F9  1  0.90580  0.75000  0.25018  1
 F  F10  1  0.75708  0.58724  0.50558  1
 F  F11  1  0.41810  0.91293  0.24970  1
 F  F12  1  0.24292  0.41276  0.49442  1
 F  F13  1  0.24292  0.08724  0.49442  1
 F  F14  1  0.58190  0.08707  0.75030  1
 F  F15  1  0.75708  0.91276  0.50558  1
 F  F16  1  0.74292  0.91276  0.00558  1
 F  F17  1  0.25708  0.08724  0.99442  1
 F  F18  1  0.08190  0.58707  0.74970  1
 F  F19  1  0.91810  0.41293  0.25030  1
 F  F20  1  0.58190  0.41293  0.75030  1
 F  F21  1  0.91810  0.08707  0.25030  1
 F  F22  1  0.41810  0.58707  0.24970  1
 F  F23  1  0.08190  0.91293  0.74970  1
 F  F24  1  0.25708  0.41276  0.99442  1
 Np  Np1  1  0.57985  0.75000  0.12776  1
 Np  Np2  1  0.42015  0.25000  0.87224  1
 Np  Np3  1  0.07985  0.25000  0.37224  1
 Np  Np4  1  0.92015  0.75000  0.62776  1
