CIF file written using JARVIS-Tools package.
data_NdSiPd2
_symmetry_space_group_name_H-M  'Pnma'
_cell_length_a       5.68759
_cell_length_b       6.96061
_cell_length_c       7.58829
_cell_angle_alpha    90
_cell_angle_beta     90
_cell_angle_gamma    90

_symmetry_Int_Tables_number  62
_chemical_formula_structural  NdSiPd2
_chemical_formula_sum  Nd4Si4Pd8
_cell_volume  300.4135845971346
_cell_formula_units_Z  4
loop_
  _symmetry_equiv_pos_site_id
 _symmetry_equiv_pos_as_xyz
 1  'x, y, z'
loop_
 _atom_site_type_symbol
 _atom_site_label
 _atom_site_symmetry_multiplicity
 _atom_site_fract_x
 _atom_site_fract_y
 _atom_site_fract_z
 _atom_site_fract_occupancy
 Nd  Nd1  1  0.14422  0.75000  0.53120  1
 Nd  Nd2  1  0.85578  0.25000  0.46880  1
 Nd  Nd3  1  0.64422  0.25000  0.96880  1
 Nd  Nd4  1  0.35578  0.75000  0.03120  1
 Pd  Pd1  1  0.59247  0.55187  0.67570  1
 Pd  Pd2  1  0.40753  0.44813  0.32430  1
 Pd  Pd3  1  0.09247  0.44813  0.82430  1
 Pd  Pd4  1  0.40753  0.05187  0.32430  1
 Pd  Pd5  1  0.90753  0.55187  0.17570  1
 Pd  Pd6  1  0.59247  0.94813  0.67570  1
 Pd  Pd7  1  0.90753  0.94813  0.17570  1
 Pd  Pd8  1  0.09247  0.05187  0.82430  1
 Si  Si1  1  0.85169  0.75000  0.87614  1
 Si  Si2  1  0.14831  0.25000  0.12386  1
 Si  Si3  1  0.35169  0.25000  0.62386  1
 Si  Si4  1  0.64831  0.75000  0.37614  1
