CIF file written using JARVIS-Tools package.
data_Fe3O2F4
_symmetry_space_group_name_H-M  'C2/m'
_cell_length_a       4.722
_cell_length_b       4.722
_cell_length_c       9.24289
_cell_angle_alpha    89.5633
_cell_angle_beta     89.5633
_cell_angle_gamma    94.537

_symmetry_Int_Tables_number  12
_chemical_formula_structural  Fe3O2F4
_chemical_formula_sum  Fe6O4F8
_cell_volume  205.43318744758554
_cell_formula_units_Z  2
loop_
  _symmetry_equiv_pos_site_id
 _symmetry_equiv_pos_as_xyz
 1  'x, y, z'
loop_
 _atom_site_type_symbol
 _atom_site_label
 _atom_site_symmetry_multiplicity
 _atom_site_fract_x
 _atom_site_fract_y
 _atom_site_fract_z
 _atom_site_fract_occupancy
 F  F1  1  0.79797  0.20203  0.50000  1
 F  F2  1  0.28154  0.28154  0.66683  1
 F  F3  1  0.71846  0.71846  0.33317  1
 F  F4  1  0.19125  0.79631  0.83307  1
 F  F5  1  0.20203  0.79797  0.50000  1
 F  F6  1  0.20369  0.80875  0.16693  1
 F  F7  1  0.79631  0.19125  0.83307  1
 F  F8  1  0.80875  0.20369  0.16693  1
 Fe  Fe1  1  0.00000  0.00000  0.00000  1
 Fe  Fe2  1  0.50000  0.50000  0.50000  1
 Fe  Fe3  1  0.51439  0.51439  0.84762  1
 Fe  Fe4  1  0.48561  0.48561  0.15238  1
 Fe  Fe5  1  0.96991  0.96991  0.66377  1
 Fe  Fe6  1  0.03009  0.03009  0.33623  1
 O  O1  1  0.67881  0.67881  0.66621  1
 O  O2  1  0.32119  0.32119  0.33379  1
 O  O3  1  0.29303  0.29303  0.99667  1
 O  O4  1  0.70697  0.70697  0.00333  1
