CIF file written using JARVIS-Tools package.
data_Sm2U2Se3O4
_symmetry_space_group_name_H-M  'Pbam'
_cell_length_a       3.97878
_cell_length_b       7.04621
_cell_length_c       14.9561
_cell_angle_alpha    90
_cell_angle_beta     90
_cell_angle_gamma    90

_symmetry_Int_Tables_number  55
_chemical_formula_structural  Sm2U2Se3O4
_chemical_formula_sum  Sm4U4Se6O8
_cell_volume  419.2979895388516
_cell_formula_units_Z  2
loop_
  _symmetry_equiv_pos_site_id
 _symmetry_equiv_pos_as_xyz
 1  'x, y, z'
loop_
 _atom_site_type_symbol
 _atom_site_label
 _atom_site_symmetry_multiplicity
 _atom_site_fract_x
 _atom_site_fract_y
 _atom_site_fract_z
 _atom_site_fract_occupancy
 O  O1  1  0.50000  0.86199  0.56722  1
 O  O2  1  0.50000  0.36199  0.93278  1
 O  O3  1  0.50000  0.63801  0.06722  1
 O  O4  1  0.00000  0.61251  0.88886  1
 O  O5  1  0.00000  0.38749  0.11114  1
 O  O6  1  0.00000  0.11251  0.61114  1
 O  O7  1  0.00000  0.88749  0.38886  1
 O  O8  1  0.50000  0.13801  0.43278  1
 Se  Se1  1  0.50000  0.50311  0.27776  1
 Se  Se2  1  0.50000  0.49689  0.72224  1
 Se  Se3  1  0.50000  0.00311  0.22224  1
 Se  Se4  1  0.50000  0.99689  0.77776  1
 Se  Se5  1  0.00000  0.00000  0.00000  1
 Se  Se6  1  0.00000  0.50000  0.50000  1
 Sm  Sm1  1  0.00000  0.79257  0.65288  1
 Sm  Sm2  1  0.00000  0.20743  0.34712  1
 Sm  Sm3  1  0.00000  0.29257  0.84712  1
 Sm  Sm4  1  0.00000  0.70743  0.15288  1
 U  U1  1  0.50000  0.70757  0.92413  1
 U  U2  1  0.50000  0.29243  0.07587  1
 U  U3  1  0.50000  0.20757  0.57587  1
 U  U4  1  0.50000  0.79243  0.42413  1
