CIF file written using JARVIS-Tools package.
data_SbHO
_symmetry_space_group_name_H-M  'R-3m'
_cell_length_a       6.91658
_cell_length_b       6.91658
_cell_length_c       6.91658
_cell_angle_alpha    31.9409
_cell_angle_beta     31.9409
_cell_angle_gamma    31.9409

_symmetry_Int_Tables_number  166
_chemical_formula_structural  SbHO
_chemical_formula_sum  Sb2H2O2
_cell_volume  82.2763146732047
_cell_formula_units_Z  2
loop_
  _symmetry_equiv_pos_site_id
 _symmetry_equiv_pos_as_xyz
 1  'x, y, z'
loop_
 _atom_site_type_symbol
 _atom_site_label
 _atom_site_symmetry_multiplicity
 _atom_site_fract_x
 _atom_site_fract_y
 _atom_site_fract_z
 _atom_site_fract_occupancy
 H  H1  1  0.61214  0.61214  0.61214  1
 H  H2  1  0.38786  0.38786  0.38786  1
 O  O1  1  0.86944  0.86944  0.86944  1
 O  O2  1  0.13056  0.13056  0.13056  1
 Sb  Sb1  1  0.24057  0.24057  0.24057  1
 Sb  Sb2  1  0.75943  0.75943  0.75943  1
