CIF file written using JARVIS-Tools package.
data_Fe4OF7
_symmetry_space_group_name_H-M  'Amm2'
_cell_length_a       7.41885
_cell_length_b       7.41885
_cell_length_c       6.92089
_cell_angle_alpha    90
_cell_angle_beta     90
_cell_angle_gamma    131.027

_symmetry_Int_Tables_number  38
_chemical_formula_structural  Fe4OF7
_chemical_formula_sum  Fe8O2F4
_cell_volume  287.36797380715586
_cell_formula_units_Z  2
loop_
  _symmetry_equiv_pos_site_id
 _symmetry_equiv_pos_as_xyz
 1  'x, y, z'
loop_
 _atom_site_type_symbol
 _atom_site_label
 _atom_site_symmetry_multiplicity
 _atom_site_fract_x
 _atom_site_fract_y
 _atom_site_fract_z
 _atom_site_fract_occupancy
 F  F1  1  0.90148  0.09852  0.50000  1
 F  F2  1  0.34876  0.65124  0.00000  1
 F  F3  1  0.74777  0.74680  0.79619  1
 F  F4  1  0.00693  0.50483  0.29589  1
 F  F5  1  0.49517  0.99307  0.70411  1
 F  F6  1  0.74777  0.74680  0.20381  1
 F  F7  1  0.49517  0.99307  0.29589  1
 F  F8  1  0.00693  0.50483  0.70411  1
 F  F9  1  0.64301  0.35699  0.00000  1
 F  F10  1  0.15047  0.84953  0.00000  1
 F  F11  1  0.39316  0.60684  0.50000  1
 F  F12  1  0.25320  0.25223  0.79619  1
 F  F13  1  0.09780  0.90220  0.50000  1
 F  F14  1  0.25320  0.25223  0.20381  1
 Fe  Fe1  1  0.27888  0.26703  0.50000  1
 Fe  Fe2  1  0.73297  0.72112  0.50000  1
 Fe  Fe3  1  0.99261  0.00739  0.00000  1
 Fe  Fe4  1  0.49602  0.50398  0.00000  1
 Fe  Fe5  1  0.24513  0.75487  0.50000  1
 Fe  Fe6  1  0.74603  0.25397  0.50000  1
 Fe  Fe7  1  0.98458  0.47528  0.00000  1
 Fe  Fe8  1  0.52472  0.01542  0.00000  1
 O  O1  1  0.60566  0.39434  0.50000  1
 O  O2  1  0.85259  0.14741  0.00000  1
