CIF file written using JARVIS-Tools package.
data_MnVGa5
_symmetry_space_group_name_H-M  'Cmmm'
_cell_length_a       8.88636
_cell_length_b       8.88636
_cell_length_c       2.68325
_cell_angle_alpha    90
_cell_angle_beta     90
_cell_angle_gamma    89.9559

_symmetry_Int_Tables_number  65
_chemical_formula_structural  MnVGa5
_chemical_formula_sum  Mn2V2Ga0
_cell_volume  211.88940181180183
_cell_formula_units_Z  2
loop_
  _symmetry_equiv_pos_site_id
 _symmetry_equiv_pos_as_xyz
 1  'x, y, z'
loop_
 _atom_site_type_symbol
 _atom_site_label
 _atom_site_symmetry_multiplicity
 _atom_site_fract_x
 _atom_site_fract_y
 _atom_site_fract_z
 _atom_site_fract_occupancy
 Ga  Ga1  1  0.93932  0.70483  0.00000  1
 Ga  Ga2  1  0.06068  0.29517  0.00000  1
 Ga  Ga3  1  0.43530  0.79547  0.00000  1
 Ga  Ga4  1  0.56470  0.20453  0.00000  1
 Ga  Ga5  1  0.20453  0.56470  0.00000  1
 Ga  Ga6  1  0.79547  0.43530  0.00000  1
 Ga  Ga7  1  0.29517  0.06068  0.00000  1
 Ga  Ga8  1  0.70483  0.93932  0.00000  1
 Ga  Ga9  1  0.00000  0.00000  0.00000  1
 Ga  Ga10  1  0.50000  0.50000  0.00000  1
 Mn  Mn1  1  0.82169  0.17831  0.50000  1
 Mn  Mn2  1  0.17831  0.82169  0.50000  1
 V  V1  1  0.32028  0.32028  0.50000  1
 V  V2  1  0.67972  0.67972  0.50000  1
