CIF file written using JARVIS-Tools package.
data_NaHoTi2O6
_symmetry_space_group_name_H-M  'Pmn2_1'
_cell_length_a       5.29131
_cell_length_b       5.51401
_cell_length_c       7.58621
_cell_angle_alpha    90
_cell_angle_beta     90
_cell_angle_gamma    90

_symmetry_Int_Tables_number  31
_chemical_formula_structural  NaHoTi2O6
_chemical_formula_sum  Na2Ho2Ti4O2
_cell_volume  221.33775802144092
_cell_formula_units_Z  2
loop_
  _symmetry_equiv_pos_site_id
 _symmetry_equiv_pos_as_xyz
 1  'x, y, z'
loop_
 _atom_site_type_symbol
 _atom_site_label
 _atom_site_symmetry_multiplicity
 _atom_site_fract_x
 _atom_site_fract_y
 _atom_site_fract_z
 _atom_site_fract_occupancy
 Ho  Ho1  1  0.01660  0.17718  0.50000  1
 Ho  Ho2  1  0.51660  0.82282  0.00000  1
 Na  Na1  1  0.49486  0.71437  0.50000  1
 Na  Na2  1  0.99486  0.28563  0.00000  1
 O  O1  1  0.18853  0.44243  0.69660  1
 O  O2  1  0.10260  0.72263  0.00000  1
 O  O3  1  0.78283  0.03957  0.20864  1
 O  O4  1  0.68853  0.55757  0.80340  1
 O  O5  1  0.28283  0.96043  0.29136  1
 O  O6  1  0.68853  0.55757  0.19660  1
 O  O7  1  0.18853  0.44243  0.30340  1
 O  O8  1  0.91942  0.77416  0.50000  1
 O  O9  1  0.78283  0.03957  0.79136  1
 O  O10  1  0.60260  0.27737  0.50000  1
 O  O11  1  0.28283  0.96043  0.70864  1
 O  O12  1  0.41942  0.22584  0.00000  1
 Ti  Ti1  1  0.01191  0.73469  0.74754  1
 Ti  Ti2  1  0.51191  0.26531  0.24754  1
 Ti  Ti3  1  0.01191  0.73469  0.25246  1
 Ti  Ti4  1  0.51191  0.26531  0.75246  1
