CIF file written using JARVIS-Tools package.
data_RbBa2Fe2F9
_symmetry_space_group_name_H-M  'R3m'
_cell_length_a       7.75799
_cell_length_b       7.75799
_cell_length_c       7.75799
_cell_angle_alpha    44.8346
_cell_angle_beta     44.8346
_cell_angle_gamma    44.8346

_symmetry_Int_Tables_number  160
_chemical_formula_structural  RbBa2Fe2F9
_chemical_formula_sum  RbBa2Fe2F9
_cell_volume  211.19227815949282
_cell_formula_units_Z  1
loop_
  _symmetry_equiv_pos_site_id
 _symmetry_equiv_pos_as_xyz
 1  'x, y, z'
loop_
 _atom_site_type_symbol
 _atom_site_label
 _atom_site_symmetry_multiplicity
 _atom_site_fract_x
 _atom_site_fract_y
 _atom_site_fract_z
 _atom_site_fract_occupancy
 Ba  Ba1  1  0.99895  0.99895  0.99895  1
 Ba  Ba2  1  0.79015  0.79015  0.79015  1
 F  F1  1  0.26585  0.78422  0.26585  1
 F  F2  1  0.78422  0.26585  0.26585  1
 F  F3  1  0.26585  0.26585  0.78422  1
 F  F4  1  0.73391  0.20997  0.73391  1
 F  F5  1  0.20997  0.73391  0.73391  1
 F  F6  1  0.73391  0.73391  0.20997  1
 F  F7  1  0.99142  0.50734  0.50734  1
 F  F8  1  0.50734  0.50734  0.99142  1
 F  F9  1  0.50734  0.99142  0.50734  1
 Fe  Fe1  1  0.39338  0.39338  0.39338  1
 Fe  Fe2  1  0.60233  0.60233  0.60233  1
 Rb  Rb1  1  0.21538  0.21538  0.21538  1
