CIF file written using JARVIS-Tools package.
data_Nd2NiPtO6
_symmetry_space_group_name_H-M  'P2_1/c'
_cell_length_a       5.81863
_cell_length_b       5.42416
_cell_length_c       9.51347
_cell_angle_alpha    55.0441
_cell_angle_beta     90
_cell_angle_gamma    90

_symmetry_Int_Tables_number  14
_chemical_formula_structural  Nd2NiPtO6
_chemical_formula_sum  Nd4Ni2Pt2O2
_cell_volume  246.08806863158225
_cell_formula_units_Z  2
loop_
  _symmetry_equiv_pos_site_id
 _symmetry_equiv_pos_as_xyz
 1  'x, y, z'
loop_
 _atom_site_type_symbol
 _atom_site_label
 _atom_site_symmetry_multiplicity
 _atom_site_fract_x
 _atom_site_fract_y
 _atom_site_fract_z
 _atom_site_fract_occupancy
 Nd  Nd1  1  0.42793  0.23001  0.74945  1
 Nd  Nd2  1  0.57207  0.76999  0.25055  1
 Nd  Nd3  1  0.92793  0.76999  0.75055  1
 Nd  Nd4  1  0.07207  0.23001  0.24945  1
 Ni  Ni1  1  0.00000  0.50000  0.50000  1
 Ni  Ni2  1  0.50000  0.50000  0.00000  1
 O  O1  1  0.03100  0.35561  0.74757  1
 O  O2  1  0.69795  0.25784  0.55138  1
 O  O3  1  0.53100  0.64439  0.75243  1
 O  O4  1  0.46900  0.35561  0.24757  1
 O  O5  1  0.96900  0.64439  0.25243  1
 O  O6  1  0.30108  0.13805  0.05156  1
 O  O7  1  0.19795  0.74216  0.94862  1
 O  O8  1  0.80108  0.86195  0.44844  1
 O  O9  1  0.69892  0.86195  0.94844  1
 O  O10  1  0.80205  0.25784  0.05138  1
 O  O11  1  0.19892  0.13805  0.55156  1
 O  O12  1  0.30205  0.74216  0.44862  1
 Pt  Pt1  1  0.50000  0.00000  0.50000  1
 Pt  Pt2  1  0.00000  0.00000  0.00000  1
