CIF file written using JARVIS-Tools package.
data_ScHO2
_symmetry_space_group_name_H-M  'R-3m'
_cell_length_a       4.6524
_cell_length_b       4.6524
_cell_length_c       4.6524
_cell_angle_alpha    38.9752
_cell_angle_beta     38.9752
_cell_angle_gamma    38.9753

_symmetry_Int_Tables_number  166
_chemical_formula_structural  ScHO2
_chemical_formula_sum  ScHO2
_cell_volume  35.82660622638635
_cell_formula_units_Z  1
loop_
  _symmetry_equiv_pos_site_id
 _symmetry_equiv_pos_as_xyz
 1  'x, y, z'
loop_
 _atom_site_type_symbol
 _atom_site_label
 _atom_site_symmetry_multiplicity
 _atom_site_fract_x
 _atom_site_fract_y
 _atom_site_fract_z
 _atom_site_fract_occupancy
 H  H1  1  0.00000  0.00000  0.00000  1
 O  O1  1  0.25088  0.25088  0.25088  1
 O  O2  1  0.74913  0.74913  0.74913  1
 Sc  Sc1  1  0.50000  0.50000  0.50000  1
