CIF file written using JARVIS-Tools package.
data_PrCu9Sn4
_symmetry_space_group_name_H-M  'I4/mcm'
_cell_length_a       8.74753
_cell_length_b       8.74753
_cell_length_c       8.74753
_cell_angle_alpha    117.079
_cell_angle_beta     117.079
_cell_angle_gamma    95.1384

_symmetry_Int_Tables_number  140
_chemical_formula_structural  PrCu9Sn4
_chemical_formula_sum  Pr2Cu8Sn8
_cell_volume  492.06112824564576
_cell_formula_units_Z  2
loop_
  _symmetry_equiv_pos_site_id
 _symmetry_equiv_pos_as_xyz
 1  'x, y, z'
loop_
 _atom_site_type_symbol
 _atom_site_label
 _atom_site_symmetry_multiplicity
 _atom_site_fract_x
 _atom_site_fract_y
 _atom_site_fract_z
 _atom_site_fract_occupancy
 Cu  Cu1  1  0.64464  0.14464  0.09223  1
 Cu  Cu2  1  0.85536  0.94759  0.50000  1
 Cu  Cu3  1  0.94759  0.44759  0.09223  1
 Cu  Cu4  1  0.14464  0.05241  0.50000  1
 Cu  Cu5  1  -0.00000  0.50000  0.50000  1
 Cu  Cu6  1  0.44759  0.35536  0.50000  1
 Cu  Cu7  1  0.22009  0.72009  0.29711  1
 Cu  Cu8  1  0.50000  0.00000  0.50000  1
 Cu  Cu9  1  0.77991  0.27991  0.70289  1
 Cu  Cu10  1  0.57702  0.07702  0.29711  1
 Cu  Cu11  1  0.27991  0.57702  0.50000  1
 Cu  Cu12  1  0.92298  0.22009  0.50000  1
 Cu  Cu13  1  0.42298  0.92298  0.70289  1
 Cu  Cu14  1  0.72009  0.42298  0.50000  1
 Cu  Cu15  1  0.07702  0.77991  0.50000  1
 Cu  Cu16  1  0.55241  0.64464  0.50000  1
 Cu  Cu17  1  0.35536  0.85536  0.90777  1
 Cu  Cu18  1  0.05241  0.55241  0.90777  1
 Pr  Pr1  1  0.75000  0.75000  -0.00000  1
 Pr  Pr2  1  0.25000  0.25000  -0.00000  1
 Sn  Sn1  1  0.02940  0.22087  0.25026  1
 Sn  Sn2  1  0.72087  0.52940  0.25026  1
 Sn  Sn3  1  0.27913  0.47060  0.74974  1
 Sn  Sn4  1  0.52940  0.27913  0.80853  1
 Sn  Sn5  1  0.22087  0.97060  0.19147  1
 Sn  Sn6  1  0.47060  0.72087  0.19147  1
 Sn  Sn7  1  0.77913  0.02940  0.80853  1
 Sn  Sn8  1  0.97060  0.77913  0.74974  1
