CIF file written using JARVIS-Tools package.
data_Li2MnNi3O8
_symmetry_space_group_name_H-M  'R-3m'
_cell_length_a       5.69615
_cell_length_b       5.69615
_cell_length_c       5.69615
_cell_angle_alpha    60.6248
_cell_angle_beta     60.6248
_cell_angle_gamma    60.6248

_symmetry_Int_Tables_number  166
_chemical_formula_structural  Li2MnNi3O8
_chemical_formula_sum  Li2MnNi3O8
_cell_volume  132.53007071364365
_cell_formula_units_Z  1
loop_
  _symmetry_equiv_pos_site_id
 _symmetry_equiv_pos_as_xyz
 1  'x, y, z'
loop_
 _atom_site_type_symbol
 _atom_site_label
 _atom_site_symmetry_multiplicity
 _atom_site_fract_x
 _atom_site_fract_y
 _atom_site_fract_z
 _atom_site_fract_occupancy
 Li  Li1  1  0.12342  0.12342  0.12342  1
 Li  Li2  1  0.87658  0.87658  0.87658  1
 Mn  Mn1  1  0.50000  0.50000  0.50000  1
 Ni  Ni1  1  0.50000  0.00000  0.50000  1
 Ni  Ni2  1  0.00000  0.50000  0.50000  1
 Ni  Ni3  1  0.50000  0.50000  -0.00000  1
 O  O1  1  0.26255  0.26255  0.26255  1
 O  O2  1  0.26481  0.26481  0.71005  1
 O  O3  1  0.71005  0.26481  0.26481  1
 O  O4  1  0.26481  0.71005  0.26481  1
 O  O5  1  0.73519  0.28995  0.73519  1
 O  O6  1  0.28995  0.73519  0.73519  1
 O  O7  1  0.73519  0.73519  0.28995  1
 O  O8  1  0.73745  0.73745  0.73745  1
