CIF file written using JARVIS-Tools package.
data_TbNa5O6
_symmetry_space_group_name_H-M  'C2/c'
_cell_length_a       5.90057
_cell_length_b       5.90057
_cell_length_c       11.059
_cell_angle_alpha    84.9736
_cell_angle_beta     84.9736
_cell_angle_gamma    120.129

_symmetry_Int_Tables_number  15
_chemical_formula_structural  TbNa5O6
_chemical_formula_sum  Tb2Na0O2
_cell_volume  327.84784092233673
_cell_formula_units_Z  2
loop_
  _symmetry_equiv_pos_site_id
 _symmetry_equiv_pos_as_xyz
 1  'x, y, z'
loop_
 _atom_site_type_symbol
 _atom_site_label
 _atom_site_symmetry_multiplicity
 _atom_site_fract_x
 _atom_site_fract_y
 _atom_site_fract_z
 _atom_site_fract_occupancy
 Na  Na1  1  -0.00000  0.50000  0.50000  1
 Na  Na2  1  0.82154  0.64311  0.00002  1
 Na  Na3  1  0.17846  0.35689  -0.00002  1
 Na  Na4  1  0.35689  0.17846  0.49998  1
 Na  Na5  1  0.64311  0.82154  0.50002  1
 Na  Na6  1  0.58333  0.41667  0.75000  1
 Na  Na7  1  0.50000  0.00000  0.00000  1
 Na  Na8  1  0.74999  0.25001  0.25000  1
 Na  Na9  1  0.25001  0.74999  0.75000  1
 Na  Na10  1  0.41667  0.58333  0.25000  1
 O  O1  1  0.04219  0.18818  0.37011  1
 O  O2  1  0.64193  0.12256  0.63120  1
 O  O3  1  0.35807  0.87744  0.36880  1
 O  O4  1  0.87744  0.35807  0.86880  1
 O  O5  1  0.12256  0.64193  0.13120  1
 O  O6  1  0.43590  0.27052  0.13116  1
 O  O7  1  0.95781  0.81182  0.62989  1
 O  O8  1  0.72948  0.56410  0.36884  1
 O  O9  1  0.81182  0.95781  0.12989  1
 O  O10  1  0.18818  0.04219  0.87011  1
 O  O11  1  0.56410  0.72948  0.86884  1
 O  O12  1  0.27052  0.43590  0.63116  1
 Tb  Tb1  1  0.91586  0.08414  0.75000  1
 Tb  Tb2  1  0.08414  0.91586  0.25000  1
