CIF file written using JARVIS-Tools package.
data_NaTl2
_symmetry_space_group_name_H-M  'Fd-3m'
_cell_length_a       8.04938
_cell_length_b       8.04938
_cell_length_c       8.04938
_cell_angle_alpha    60
_cell_angle_beta     60
_cell_angle_gamma    60

_symmetry_Int_Tables_number  227
_chemical_formula_structural  NaTl2
_chemical_formula_sum  Na4Tl8
_cell_volume  368.7840659420854
_cell_formula_units_Z  4
loop_
  _symmetry_equiv_pos_site_id
 _symmetry_equiv_pos_as_xyz
 1  'x, y, z'
loop_
 _atom_site_type_symbol
 _atom_site_label
 _atom_site_symmetry_multiplicity
 _atom_site_fract_x
 _atom_site_fract_y
 _atom_site_fract_z
 _atom_site_fract_occupancy
 Na  Na1  1  0.12500  0.12500  0.12500  1
 Na  Na2  1  0.12500  0.12500  0.62500  1
 Na  Na3  1  0.12500  0.62500  0.12500  1
 Na  Na4  1  0.62500  0.12500  0.12500  1
 Tl  Tl1  1  0.39878  0.39878  0.39878  1
 Tl  Tl2  1  0.39878  0.39878  0.80366  1
 Tl  Tl3  1  0.39878  0.80366  0.39878  1
 Tl  Tl4  1  0.85122  0.85122  0.44634  1
 Tl  Tl5  1  0.85122  0.85122  0.85122  1
 Tl  Tl6  1  0.80366  0.39878  0.39878  1
 Tl  Tl7  1  0.85122  0.44634  0.85122  1
 Tl  Tl8  1  0.44634  0.85122  0.85122  1
