CIF file written using JARVIS-Tools package.
data_Li2FeCl4
_symmetry_space_group_name_H-M  'Imma'
_cell_length_a       7.29119
_cell_length_b       7.29118
_cell_length_c       7.29118
_cell_angle_alpha    120.132
_cell_angle_beta     120.159
_cell_angle_gamma    89.7488

_symmetry_Int_Tables_number  74
_chemical_formula_structural  Li2FeCl4
_chemical_formula_sum  Li4Fe2Cl8
_cell_volume  273.47700257092197
_cell_formula_units_Z  2
loop_
  _symmetry_equiv_pos_site_id
 _symmetry_equiv_pos_as_xyz
 1  'x, y, z'
loop_
 _atom_site_type_symbol
 _atom_site_label
 _atom_site_symmetry_multiplicity
 _atom_site_fract_x
 _atom_site_fract_y
 _atom_site_fract_z
 _atom_site_fract_occupancy
 Cl  Cl1  1  0.25191  0.73933  0.98742  1
 Cl  Cl2  1  0.25191  0.26449  0.51258  1
 Cl  Cl3  1  0.24770  0.73518  0.51252  1
 Cl  Cl4  1  0.72267  0.73518  0.98748  1
 Cl  Cl5  1  0.74809  0.26067  0.01258  1
 Cl  Cl6  1  0.74809  0.73551  0.48742  1
 Cl  Cl7  1  0.75230  0.26482  0.48748  1
 Cl  Cl8  1  0.27733  0.26482  0.01252  1
 Fe  Fe1  1  0.50000  0.50000  0.00000  1
 Fe  Fe2  1  -0.00000  0.50000  0.50000  1
 Li  Li1  1  0.50000  0.50000  0.50000  1
 Li  Li2  1  0.50000  -0.00000  0.00000  1
 Li  Li3  1  0.11319  0.86319  0.25000  1
 Li  Li4  1  0.88681  0.13681  0.75000  1
