CIF file written using JARVIS-Tools package.
data_LiCuRu2Rh2O8
_symmetry_space_group_name_H-M  'Imm2'
_cell_length_a       6.09626
_cell_length_b       6.09626
_cell_length_c       6.09626
_cell_angle_alpha    125.168
_cell_angle_beta     119.348
_cell_angle_gamma    86.2108

_symmetry_Int_Tables_number  44
_chemical_formula_structural  LiCuRu2Rh2O8
_chemical_formula_sum  LiCuRu2Rh2O8
_cell_volume  153.8281219692407
_cell_formula_units_Z  1
loop_
  _symmetry_equiv_pos_site_id
 _symmetry_equiv_pos_as_xyz
 1  'x, y, z'
loop_
 _atom_site_type_symbol
 _atom_site_label
 _atom_site_symmetry_multiplicity
 _atom_site_fract_x
 _atom_site_fract_y
 _atom_site_fract_z
 _atom_site_fract_occupancy
 Cu  Cu1  1  0.13246  0.63246  0.50000  1
 Li  Li1  1  0.37946  0.37946  0.00000  1
 O  O1  1  0.98822  0.76733  0.22089  1
 O  O2  1  0.54644  0.76733  0.77911  1
 O  O3  1  0.97776  0.73579  0.75802  1
 O  O4  1  0.97776  0.21974  0.24198  1
 O  O5  1  0.47676  0.23026  0.24650  1
 O  O6  1  0.98376  0.23026  0.75350  1
 O  O7  1  0.51966  0.25398  0.73432  1
 O  O8  1  0.51966  0.78534  0.26568  1
 Rh  Rh1  1  0.75218  0.99919  0.75298  1
 Rh  Rh2  1  0.24621  0.99919  0.24702  1
 Ru  Ru1  1  0.74984  0.02630  0.27646  1
 Ru  Ru2  1  0.74984  0.47338  0.72354  1
