CIF file written using JARVIS-Tools package.
data_Li7Ni5O12
_symmetry_space_group_name_H-M  'P-1'
_cell_length_a       5.74742
_cell_length_b       6.35028
_cell_length_c       6.4223
_cell_angle_alpha    95.6801
_cell_angle_beta     117.002
_cell_angle_gamma    103.104

_symmetry_Int_Tables_number  2
_chemical_formula_structural  Li7Ni5O12
_chemical_formula_sum  Li7Ni5O2
_cell_volume  197.82628856830945
_cell_formula_units_Z  1
loop_
  _symmetry_equiv_pos_site_id
 _symmetry_equiv_pos_as_xyz
 1  'x, y, z'
loop_
 _atom_site_type_symbol
 _atom_site_label
 _atom_site_symmetry_multiplicity
 _atom_site_fract_x
 _atom_site_fract_y
 _atom_site_fract_z
 _atom_site_fract_occupancy
 Li  Li1  1  0.24428  0.67250  0.16369  1
 Li  Li2  1  0.00000  0.00000  0.00000  1
 Li  Li3  1  0.74787  0.99703  0.49781  1
 Li  Li4  1  0.75667  0.67618  0.16331  1
 Li  Li5  1  0.75572  0.32750  0.83631  1
 Li  Li6  1  0.25213  0.00297  0.50219  1
 Li  Li7  1  0.24333  0.32382  0.83669  1
 Ni  Ni1  1  -0.00040  0.66869  0.66948  1
 Ni  Ni2  1  0.00040  0.33131  0.33052  1
 Ni  Ni3  1  0.50328  0.66794  0.67035  1
 Ni  Ni4  1  0.49672  0.33206  0.32965  1
 Ni  Ni5  1  0.50000  0.00000  0.00000  1
 O  O1  1  0.63215  0.65061  0.42488  1
 O  O2  1  0.63194  0.31907  0.08850  1
 O  O3  1  0.85981  0.66063  0.88750  1
 O  O4  1  0.39081  0.01827  0.24150  1
 O  O5  1  0.60919  0.98173  0.75850  1
 O  O6  1  0.36806  0.68093  0.91150  1
 O  O7  1  0.86081  0.01599  0.24201  1
 O  O8  1  0.87001  0.34672  0.56278  1
 O  O9  1  0.13919  0.98401  0.75799  1
 O  O10  1  0.14019  0.33937  0.11250  1
 O  O11  1  0.36785  0.34939  0.57512  1
 O  O12  1  0.12999  0.65328  0.43722  1
