CIF file written using JARVIS-Tools package.
data_LiDyS2O8
_symmetry_space_group_name_H-M  'P-4n2'
_cell_length_a       7.48657
_cell_length_b       7.48657
_cell_length_c       5.8496
_cell_angle_alpha    90
_cell_angle_beta     90
_cell_angle_gamma    90

_symmetry_Int_Tables_number  118
_chemical_formula_structural  LiDyS2O8
_chemical_formula_sum  Li2Dy2S4O6
_cell_volume  327.8623454502654
_cell_formula_units_Z  2
loop_
  _symmetry_equiv_pos_site_id
 _symmetry_equiv_pos_as_xyz
 1  'x, y, z'
loop_
 _atom_site_type_symbol
 _atom_site_label
 _atom_site_symmetry_multiplicity
 _atom_site_fract_x
 _atom_site_fract_y
 _atom_site_fract_z
 _atom_site_fract_occupancy
 Dy  Dy1  1  0.00000  0.50000  0.25000  1
 Dy  Dy2  1  0.50000  0.00000  0.75000  1
 Li  Li1  1  0.00000  0.50000  0.75000  1
 Li  Li2  1  0.50000  0.00000  0.25000  1
 O  O1  1  0.91439  0.68553  0.56747  1
 O  O2  1  0.08561  0.31447  0.56747  1
 O  O3  1  0.58561  0.18553  0.06747  1
 O  O4  1  0.20821  0.09460  0.84642  1
 O  O5  1  0.68553  0.08561  0.43253  1
 O  O6  1  0.31447  0.91439  0.43253  1
 O  O7  1  0.41439  0.81447  0.06747  1
 O  O8  1  0.18553  0.41439  0.93253  1
 O  O9  1  0.59460  0.70821  0.65358  1
 O  O10  1  0.90540  0.20821  0.15358  1
 O  O11  1  0.81447  0.58561  0.93253  1
 O  O12  1  0.09460  0.79179  0.15358  1
 O  O13  1  0.29179  0.59460  0.34642  1
 O  O14  1  0.70821  0.40540  0.34642  1
 O  O15  1  0.40540  0.29179  0.65358  1
 O  O16  1  0.79179  0.90540  0.84642  1
 S  S1  1  0.27648  0.77648  0.25000  1
 S  S2  1  0.72352  0.22352  0.25000  1
 S  S3  1  0.22352  0.27648  0.75000  1
 S  S4  1  0.77648  0.72352  0.75000  1
