CIF file written using JARVIS-Tools package.
data_Mg3B2Rh5
_symmetry_space_group_name_H-M  'P4/mbm'
_cell_length_a       9.46855
_cell_length_b       9.46855
_cell_length_c       2.94597
_cell_angle_alpha    90
_cell_angle_beta     90
_cell_angle_gamma    90

_symmetry_Int_Tables_number  127
_chemical_formula_structural  Mg3B2Rh5
_chemical_formula_sum  Mg6B4Rh0
_cell_volume  264.1162812148119
_cell_formula_units_Z  2
loop_
  _symmetry_equiv_pos_site_id
 _symmetry_equiv_pos_as_xyz
 1  'x, y, z'
loop_
 _atom_site_type_symbol
 _atom_site_label
 _atom_site_symmetry_multiplicity
 _atom_site_fract_x
 _atom_site_fract_y
 _atom_site_fract_z
 _atom_site_fract_occupancy
 B  B1  1  0.87374  0.37374  0.00000  1
 B  B2  1  0.12626  0.62626  0.00000  1
 B  B3  1  0.37374  0.12626  0.00000  1
 B  B4  1  0.62626  0.87374  0.00000  1
 Mg  Mg1  1  0.50000  0.50000  0.00000  1
 Mg  Mg2  1  0.67679  0.17679  0.00000  1
 Mg  Mg3  1  0.82321  0.67679  0.00000  1
 Mg  Mg4  1  0.17679  0.32321  0.00000  1
 Mg  Mg5  1  0.32321  0.82321  0.00000  1
 Mg  Mg6  1  0.00000  0.00000  0.00000  1
 Rh  Rh1  1  0.28062  0.57101  0.50000  1
 Rh  Rh2  1  0.57101  0.71938  0.50000  1
 Rh  Rh3  1  0.50000  0.00000  0.50000  1
 Rh  Rh4  1  0.00000  0.50000  0.50000  1
 Rh  Rh5  1  0.21938  0.07101  0.50000  1
 Rh  Rh6  1  0.78062  0.92899  0.50000  1
 Rh  Rh7  1  0.07101  0.78062  0.50000  1
 Rh  Rh8  1  0.71938  0.42899  0.50000  1
 Rh  Rh9  1  0.92899  0.21938  0.50000  1
 Rh  Rh10  1  0.42899  0.28062  0.50000  1
