CIF file written using JARVIS-Tools package.
data_Mg2MnGa3
_symmetry_space_group_name_H-M  'Cmcm'
_cell_length_a       5.0512
_cell_length_b       5.05119
_cell_length_c       8.43848
_cell_angle_alpha    90
_cell_angle_beta     90
_cell_angle_gamma    115.773

_symmetry_Int_Tables_number  63
_chemical_formula_structural  Mg2MnGa3
_chemical_formula_sum  Mg4Mn2Ga6
_cell_volume  193.88696198732865
_cell_formula_units_Z  2
loop_
  _symmetry_equiv_pos_site_id
 _symmetry_equiv_pos_as_xyz
 1  'x, y, z'
loop_
 _atom_site_type_symbol
 _atom_site_label
 _atom_site_symmetry_multiplicity
 _atom_site_fract_x
 _atom_site_fract_y
 _atom_site_fract_z
 _atom_site_fract_occupancy
 Ga  Ga1  1  0.83119  0.63915  0.75000  1
 Ga  Ga2  1  0.16881  0.36085  0.25000  1
 Ga  Ga3  1  0.36085  0.16881  0.75000  1
 Ga  Ga4  1  0.63915  0.83119  0.25000  1
 Ga  Ga5  1  0.00000  0.00000  0.50000  1
 Ga  Ga6  1  0.00000  0.00000  0.00000  1
 Mg  Mg1  1  0.67257  0.32743  0.06632  1
 Mg  Mg2  1  0.32743  0.67257  0.93368  1
 Mg  Mg3  1  0.32743  0.67257  0.56632  1
 Mg  Mg4  1  0.67257  0.32743  0.43368  1
 Mn  Mn1  1  0.84562  0.15438  0.75000  1
 Mn  Mn2  1  0.15438  0.84562  0.25000  1
