CIF file written using JARVIS-Tools package.
data_HfPt4
_symmetry_space_group_name_H-M  'P4/mmm'
_cell_length_a       4.01959
_cell_length_b       4.01959
_cell_length_c       20.1951
_cell_angle_alpha    90
_cell_angle_beta     90
_cell_angle_gamma    90

_symmetry_Int_Tables_number  123
_chemical_formula_structural  HfPt4
_chemical_formula_sum  Hf4Pt6
_cell_volume  326.29364766005205
_cell_formula_units_Z  4
loop_
  _symmetry_equiv_pos_site_id
 _symmetry_equiv_pos_as_xyz
 1  'x, y, z'
loop_
 _atom_site_type_symbol
 _atom_site_label
 _atom_site_symmetry_multiplicity
 _atom_site_fract_x
 _atom_site_fract_y
 _atom_site_fract_z
 _atom_site_fract_occupancy
 Hf  Hf1  1  0.00000  0.00000  0.19614  1
 Hf  Hf2  1  0.00000  0.00000  0.39925  1
 Hf  Hf3  1  0.00000  0.00000  0.60075  1
 Hf  Hf4  1  0.00000  0.00000  0.80386  1
 Pt  Pt1  1  0.50000  0.50000  0.00000  1
 Pt  Pt2  1  0.50000  0.50000  0.20087  1
 Pt  Pt3  1  0.50000  0.50000  0.40024  1
 Pt  Pt4  1  0.50000  0.50000  0.59976  1
 Pt  Pt5  1  0.50000  0.50000  0.79913  1
 Pt  Pt6  1  0.00000  0.50000  0.89833  1
 Pt  Pt7  1  0.50000  0.00000  0.10167  1
 Pt  Pt8  1  0.50000  0.00000  0.69962  1
 Pt  Pt9  1  0.50000  0.00000  0.30038  1
 Pt  Pt10  1  0.50000  0.00000  0.89833  1
 Pt  Pt11  1  0.00000  0.50000  0.10167  1
 Pt  Pt12  1  0.00000  0.50000  0.30038  1
 Pt  Pt13  1  0.00000  0.50000  0.50000  1
 Pt  Pt14  1  0.00000  0.50000  0.69962  1
 Pt  Pt15  1  0.50000  0.00000  0.50000  1
 Pt  Pt16  1  0.00000  0.00000  0.00000  1
