CIF file written using JARVIS-Tools package.
data_Dy2MnSbO7
_symmetry_space_group_name_H-M  'Imma'
_cell_length_a       7.26665
_cell_length_b       7.26665
_cell_length_c       7.26665
_cell_angle_alpha    121.069
_cell_angle_beta     118.874
_cell_angle_gamma    90.0604

_symmetry_Int_Tables_number  74
_chemical_formula_structural  Dy2MnSbO7
_chemical_formula_sum  Dy4Mn2Sb2O4
_cell_volume  271.3174813985402
_cell_formula_units_Z  2
loop_
  _symmetry_equiv_pos_site_id
 _symmetry_equiv_pos_as_xyz
 1  'x, y, z'
loop_
 _atom_site_type_symbol
 _atom_site_label
 _atom_site_symmetry_multiplicity
 _atom_site_fract_x
 _atom_site_fract_y
 _atom_site_fract_z
 _atom_site_fract_occupancy
 Dy  Dy1  1  0.00000  0.50000  -0.00000  1
 Dy  Dy2  1  -0.00000  -0.00000  0.50000  1
 Dy  Dy3  1  -0.00000  0.50000  0.50000  1
 Dy  Dy4  1  0.50000  0.50000  0.00000  1
 Mn  Mn1  1  0.50000  -0.00000  0.00000  1
 Mn  Mn2  1  0.50000  0.50000  0.50000  1
 O  O1  1  0.87384  0.62384  0.25000  1
 O  O2  1  0.12616  0.37616  0.75000  1
 O  O3  1  0.16135  0.91708  0.82658  1
 O  O4  1  0.41932  0.66932  0.75000  1
 O  O5  1  0.83865  0.66523  0.75574  1
 O  O6  1  0.83246  0.08246  0.75000  1
 O  O7  1  0.83865  0.08292  0.17342  1
 O  O8  1  0.58068  0.33068  0.25000  1
 O  O9  1  0.16754  0.91754  0.25000  1
 O  O10  1  0.40949  0.08292  0.74426  1
 O  O11  1  0.16135  0.33477  0.24426  1
 O  O12  1  0.59051  0.91708  0.25574  1
 O  O13  1  0.40949  0.66523  0.32658  1
 O  O14  1  0.59051  0.33477  0.67342  1
 Sb  Sb1  1  0.00000  0.00000  0.00000  1
 Sb  Sb2  1  0.50000  -0.00000  0.50000  1
