CIF file written using JARVIS-Tools package.
data_LiVP2O7
_symmetry_space_group_name_H-M  'P2_1'
_cell_length_a       4.69346
_cell_length_b       8.33741
_cell_length_c       7.13134
_cell_angle_alpha    89.9999
_cell_angle_beta     117.486
_cell_angle_gamma    89.9999

_symmetry_Int_Tables_number  4
_chemical_formula_structural  LiVP2O7
_chemical_formula_sum  Li2V2P4O4
_cell_volume  247.55912028095773
_cell_formula_units_Z  2
loop_
  _symmetry_equiv_pos_site_id
 _symmetry_equiv_pos_as_xyz
 1  'x, y, z'
loop_
 _atom_site_type_symbol
 _atom_site_label
 _atom_site_symmetry_multiplicity
 _atom_site_fract_x
 _atom_site_fract_y
 _atom_site_fract_z
 _atom_site_fract_occupancy
 Li  Li1  1  0.31849  0.48352  0.78827  1
 Li  Li2  1  0.68151  0.98352  0.21173  1
 O  O1  1  0.27431  0.32369  0.02170  1
 O  O2  1  0.11725  0.66410  0.87127  1
 O  O3  1  0.88275  0.16410  0.12873  1
 O  O4  1  0.19506  0.32459  0.50848  1
 O  O5  1  0.43336  0.66788  0.61428  1
 O  O6  1  0.31466  0.02763  0.58313  1
 O  O7  1  0.75571  0.24034  0.75078  1
 O  O8  1  0.24429  0.74034  0.24922  1
 O  O9  1  0.21897  0.94346  0.97102  1
 O  O10  1  0.56664  0.16788  0.38572  1
 O  O11  1  0.80494  0.82459  0.49152  1
 O  O12  1  0.68534  0.52763  0.41687  1
 O  O13  1  0.78102  0.44346  0.02898  1
 O  O14  1  0.72569  0.82369  -0.02170  1
 P  P1  1  0.56502  0.68684  0.45414  1
 P  P2  1  0.93811  0.29077  0.99117  1
 P  P3  1  0.06189  0.79077  0.00883  1
 P  P4  1  0.43498  0.18684  0.54586  1
 V  V1  1  0.72887  0.33998  0.26935  1
 V  V2  1  0.27113  0.83998  0.73065  1
