CIF file written using JARVIS-Tools package.
data_KMnP3O9
_symmetry_space_group_name_H-M  'P-6c2'
_cell_length_a       6.70327
_cell_length_b       6.70327
_cell_length_c       9.99303
_cell_angle_alpha    90
_cell_angle_beta     90
_cell_angle_gamma    120

_symmetry_Int_Tables_number  188
_chemical_formula_structural  KMnP3O9
_chemical_formula_sum  K2Mn2P6O8
_cell_volume  388.86716884009735
_cell_formula_units_Z  2
loop_
  _symmetry_equiv_pos_site_id
 _symmetry_equiv_pos_as_xyz
 1  'x, y, z'
loop_
 _atom_site_type_symbol
 _atom_site_label
 _atom_site_symmetry_multiplicity
 _atom_site_fract_x
 _atom_site_fract_y
 _atom_site_fract_z
 _atom_site_fract_occupancy
 K  K1  1  0.00000  0.00000  0.00000  1
 K  K2  1  0.00000  0.00000  0.50000  1
 Mn  Mn1  1  0.66667  0.33333  0.00000  1
 Mn  Mn2  1  0.66667  0.33333  0.50000  1
 O  O1  1  0.93301  0.60191  0.12108  1
 O  O2  1  0.39809  0.33110  0.12108  1
 O  O3  1  0.93301  0.60191  0.37892  1
 O  O4  1  0.56922  0.86128  0.75000  1
 O  O5  1  0.66890  0.06699  0.12108  1
 O  O6  1  0.39809  0.33110  0.37892  1
 O  O7  1  0.39809  0.06699  0.62108  1
 O  O8  1  0.93301  0.33110  0.62108  1
 O  O9  1  0.66890  0.06699  0.37892  1
 O  O10  1  0.66890  0.60191  0.62108  1
 O  O11  1  0.66890  0.60191  0.87892  1
 O  O12  1  0.56922  0.70794  0.25000  1
 O  O13  1  0.93301  0.33110  0.87892  1
 O  O14  1  0.13872  0.70794  0.75000  1
 O  O15  1  0.29206  0.86128  0.25000  1
 O  O16  1  0.39809  0.06699  0.87892  1
 O  O17  1  0.13872  0.43078  0.25000  1
 O  O18  1  0.29206  0.43078  0.75000  1
 P  P1  1  0.38267  0.94605  0.75000  1
 P  P2  1  0.38267  0.43662  0.25000  1
 P  P3  1  0.56338  0.94605  0.25000  1
 P  P4  1  0.56338  0.61733  0.75000  1
 P  P5  1  0.05395  0.61733  0.25000  1
 P  P6  1  0.05395  0.43662  0.75000  1
