CIF file written using JARVIS-Tools package.
data_Yb3Ca8Se12
_symmetry_space_group_name_H-M  'P-4m2'
_cell_length_a       5.88957
_cell_length_b       5.88957
_cell_length_c       17.73
_cell_angle_alpha    90
_cell_angle_beta     90
_cell_angle_gamma    90

_symmetry_Int_Tables_number  115
_chemical_formula_structural  Yb3Ca8Se12
_chemical_formula_sum  Yb3Ca8Se2
_cell_volume  615.0018175357139
_cell_formula_units_Z  1
loop_
  _symmetry_equiv_pos_site_id
 _symmetry_equiv_pos_as_xyz
 1  'x, y, z'
loop_
 _atom_site_type_symbol
 _atom_site_label
 _atom_site_symmetry_multiplicity
 _atom_site_fract_x
 _atom_site_fract_y
 _atom_site_fract_z
 _atom_site_fract_occupancy
 Ca  Ca1  1  0.00000  0.00000  0.33170  1
 Ca  Ca2  1  0.00000  0.50000  0.49989  1
 Ca  Ca3  1  0.00000  0.00000  0.66830  1
 Ca  Ca4  1  0.00000  0.50000  0.83624  1
 Ca  Ca5  1  0.50000  0.00000  0.16376  1
 Ca  Ca6  1  0.50000  0.50000  0.33223  1
 Ca  Ca7  1  0.50000  0.00000  0.50011  1
 Ca  Ca8  1  0.50000  0.50000  0.66777  1
 Se  Se1  1  0.00000  0.50000  0.66688  1
 Se  Se2  1  0.00000  0.00000  0.83401  1
 Se  Se3  1  0.50000  0.00000  0.33312  1
 Se  Se4  1  0.00000  0.00000  0.16599  1
 Se  Se5  1  0.50000  0.50000  0.50000  1
 Se  Se6  1  0.50000  0.50000  0.16616  1
 Se  Se7  1  0.00000  0.50000  0.33257  1
 Se  Se8  1  0.00000  0.50000  0.00095  1
 Se  Se9  1  0.50000  0.50000  0.83384  1
 Se  Se10  1  0.50000  0.00000  0.99905  1
 Se  Se11  1  0.50000  0.00000  0.66743  1
 Se  Se12  1  0.00000  0.00000  0.50000  1
 Yb  Yb1  1  0.50000  0.00000  0.83530  1
 Yb  Yb2  1  0.50000  0.50000  0.00000  1
 Yb  Yb3  1  0.00000  0.50000  0.16470  1
