CIF file written using JARVIS-Tools package.
data_Li4CoCu3P4O16
_symmetry_space_group_name_H-M  'Pm'
_cell_length_a       6.00682
_cell_length_b       4.71195
_cell_length_c       10.0125
_cell_angle_alpha    88.9154
_cell_angle_beta     90
_cell_angle_gamma    90

_symmetry_Int_Tables_number  6
_chemical_formula_structural  Li4CoCu3P4O16
_chemical_formula_sum  Li4CoCu3P4O6
_cell_volume  283.3411730671413
_cell_formula_units_Z  1
loop_
  _symmetry_equiv_pos_site_id
 _symmetry_equiv_pos_as_xyz
 1  'x, y, z'
loop_
 _atom_site_type_symbol
 _atom_site_label
 _atom_site_symmetry_multiplicity
 _atom_site_fract_x
 _atom_site_fract_y
 _atom_site_fract_z
 _atom_site_fract_occupancy
 Co  Co1  1  0.00000  0.02152  0.71846  1
 Cu  Cu1  1  0.50000  0.97229  0.28289  1
 Cu  Cu2  1  0.50000  0.54843  0.78385  1
 Cu  Cu3  1  0.00000  0.46489  0.21825  1
 Li  Li1  1  0.25010  0.00476  0.00404  1
 Li  Li2  1  0.74990  0.00476  0.00404  1
 Li  Li3  1  0.74934  0.49377  0.49632  1
 Li  Li4  1  0.25066  0.49377  0.49632  1
 O  O1  1  0.20618  0.78040  0.33568  1
 O  O2  1  0.20116  0.72922  0.83094  1
 O  O3  1  0.50000  0.75277  0.09468  1
 O  O4  1  0.00000  0.78854  0.55105  1
 O  O5  1  0.79382  0.78040  0.33568  1
 O  O6  1  0.29017  0.20199  0.66685  1
 O  O7  1  0.00000  0.70357  0.04872  1
 O  O8  1  0.50000  0.74565  0.59959  1
 O  O9  1  0.50000  0.31043  0.94792  1
 O  O10  1  0.00000  0.24232  0.40304  1
 O  O11  1  0.29485  0.28446  0.16375  1
 O  O12  1  0.00000  0.25837  0.90225  1
 O  O13  1  0.79884  0.72922  0.83094  1
 O  O14  1  0.70983  0.20199  0.66685  1
 O  O15  1  0.70515  0.28446  0.16375  1
 O  O16  1  0.50000  0.20356  0.45323  1
 P  P1  1  0.00000  0.91552  0.40527  1
 P  P2  1  0.00000  0.58294  0.90529  1
 P  P3  1  0.50000  0.42719  0.09340  1
 P  P4  1  0.50000  0.07283  0.59696  1
