CIF file written using JARVIS-Tools package.
data_SrSiH
_symmetry_space_group_name_H-M  'P4mm'
_cell_length_a       3.42377
_cell_length_b       3.42377
_cell_length_c       6.8645
_cell_angle_alpha    90
_cell_angle_beta     90
_cell_angle_gamma    90

_symmetry_Int_Tables_number  99
_chemical_formula_structural  SrSiH
_chemical_formula_sum  SrSiH
_cell_volume  80.46727503806382
_cell_formula_units_Z  1
loop_
  _symmetry_equiv_pos_site_id
 _symmetry_equiv_pos_as_xyz
 1  'x, y, z'
loop_
 _atom_site_type_symbol
 _atom_site_label
 _atom_site_symmetry_multiplicity
 _atom_site_fract_x
 _atom_site_fract_y
 _atom_site_fract_z
 _atom_site_fract_occupancy
 H  H1  1  0.00000  0.00000  0.02122  1
 Si  Si1  1  0.00000  0.00000  0.24358  1
 Sr  Sr1  1  0.00000  0.00000  0.67773  1
