CIF file written using JARVIS-Tools package.
data_Ba2CuAg3Sn2S8
_symmetry_space_group_name_H-M  'P1'
_cell_length_a       6.43503
_cell_length_b       6.42726
_cell_length_c       10.6117
_cell_angle_alpha    81.2791
_cell_angle_beta     80.7671
_cell_angle_gamma    69.0231

_symmetry_Int_Tables_number  1
_chemical_formula_structural  Ba2CuAg3Sn2S8
_chemical_formula_sum  Ba2CuAg3Sn2S8
_cell_volume  402.38145461579995
_cell_formula_units_Z  1
loop_
  _symmetry_equiv_pos_site_id
 _symmetry_equiv_pos_as_xyz
 1  'x, y, z'
loop_
 _atom_site_type_symbol
 _atom_site_label
 _atom_site_symmetry_multiplicity
 _atom_site_fract_x
 _atom_site_fract_y
 _atom_site_fract_z
 _atom_site_fract_occupancy
 Ag  Ag1  1  0.58356  0.59300  0.09314  1
 Ag  Ag2  1  0.09226  0.09292  0.58760  1
 Ag  Ag3  1  0.40387  0.40675  0.90646  1
 Ba  Ba1  1  0.99503  0.00060  0.00122  1
 Ba  Ba2  1  0.50617  0.50104  0.49776  1
 Cu  Cu1  1  0.92315  0.88420  0.41484  1
 S  S1  1  0.75699  0.36878  0.76573  1
 S  S2  1  0.22423  0.87480  0.27682  1
 S  S3  1  0.53728  0.92770  0.93653  1
 S  S4  1  0.04063  0.44114  0.44062  1
 S  S5  1  0.62624  0.24160  0.23494  1
 S  S6  1  0.13980  0.74664  0.73383  1
 S  S7  1  0.06586  0.46050  0.06269  1
 S  S8  1  0.60710  0.95617  0.54883  1
 Sn  Sn1  1  0.75659  0.75054  0.74689  1
 Sn  Sn2  1  0.24124  0.25362  0.25210  1
