CIF file written using JARVIS-Tools package.
data_K3Mo3Se4C3N2
_symmetry_space_group_name_H-M  'P1'
_cell_length_a       9.43021
_cell_length_b       9.4302
_cell_length_c       9.43021
_cell_angle_alpha    104.859
_cell_angle_beta     104.859
_cell_angle_gamma    119.15

_symmetry_Int_Tables_number  1
_chemical_formula_structural  K3Mo3Se4C3N2
_chemical_formula_sum  K6Mo6Se8C6N4
_cell_volume  631.5456874516995
_cell_formula_units_Z  2
loop_
  _symmetry_equiv_pos_site_id
 _symmetry_equiv_pos_as_xyz
 1  'x, y, z'
loop_
 _atom_site_type_symbol
 _atom_site_label
 _atom_site_symmetry_multiplicity
 _atom_site_fract_x
 _atom_site_fract_y
 _atom_site_fract_z
 _atom_site_fract_occupancy
 C  C1  1  0.16247  0.60721  0.76968  1
 C  C2  1  0.39279  0.16247  0.55526  1
 C  C3  1  0.06612  0.06612  0.00000  1
 C  C4  1  0.93388  0.93388  -0.00000  1
 C  C5  1  0.48756  0.59435  0.69801  1
 C  C6  1  0.83753  0.39279  0.23032  1
 K  K1  1  0.87176  0.78088  0.65264  1
 K  K2  1  0.75000  0.25000  0.50000  1
 K  K3  1  0.25000  0.75000  0.50000  1
 K  K4  1  0.21912  0.87176  0.09088  1
 K  K5  1  0.78088  0.12824  0.90912  1
 K  K6  1  0.12824  0.21912  0.34736  1
 Mo  Mo1  1  0.65693  0.44581  0.10274  1
 Mo  Mo2  1  0.44581  0.34307  0.78888  1
 Mo  Mo3  1  0.70768  0.70768  0.00000  1
 Mo  Mo4  1  0.55419  0.65693  0.21112  1
 Mo  Mo5  1  0.34307  0.55419  0.89726  1
 Mo  Mo6  1  0.29232  0.29232  -0.00000  1
 N  N1  1  0.63305  0.93681  0.56986  1
 N  N2  1  0.93681  0.36695  0.30377  1
 N  N3  1  0.06319  0.63305  0.69623  1
 N  N4  1  0.36695  0.06319  0.43014  1
 Se  Se1  1  0.51244  0.40565  0.30199  1
 Se  Se2  1  0.59435  0.89634  0.10679  1
 Se  Se3  1  0.10366  0.21045  0.69801  1
 Se  Se4  1  0.40565  0.10366  0.89321  1
 Se  Se5  1  0.21045  0.51244  0.10679  1
 Se  Se6  1  0.89634  0.78955  0.30199  1
 Se  Se7  1  0.60721  0.83753  0.44474  1
 Se  Se8  1  0.78955  0.48756  0.89321  1
