CIF file written using JARVIS-Tools package.
data_Ba4Y2Cu6O13
_symmetry_space_group_name_H-M  'Fmmm'
_cell_length_a       12.5188
_cell_length_b       12.4976
_cell_length_c       5.49213
_cell_angle_alpha    77.5339
_cell_angle_beta     77.1021
_cell_angle_gamma    25.364

_symmetry_Int_Tables_number  69
_chemical_formula_structural  Ba4Y2Cu6O13
_chemical_formula_sum  Ba4Y2Cu6O3
_cell_volume  358.58984209427445
_cell_formula_units_Z  1
loop_
  _symmetry_equiv_pos_site_id
 _symmetry_equiv_pos_as_xyz
 1  'x, y, z'
loop_
 _atom_site_type_symbol
 _atom_site_label
 _atom_site_symmetry_multiplicity
 _atom_site_fract_x
 _atom_site_fract_y
 _atom_site_fract_z
 _atom_site_fract_occupancy
 Ba  Ba1  1  0.16274  0.64575  0.83726  1
 Ba  Ba2  1  0.64575  0.16274  0.35425  1
 Ba  Ba3  1  0.83726  0.35425  0.16274  1
 Ba  Ba4  1  0.35425  0.83726  0.64575  1
 Cu  Cu1  1  0.74337  0.25663  0.74337  1
 Cu  Cu2  1  0.25663  0.74337  0.25663  1
 Cu  Cu3  1  0.93336  0.43046  0.56954  1
 Cu  Cu4  1  0.43046  0.93336  0.06664  1
 Cu  Cu5  1  0.06664  0.56954  0.43046  1
 Cu  Cu6  1  0.56954  0.06664  0.93336  1
 O  O1  1  0.84804  0.30428  0.69572  1
 O  O2  1  0.80907  0.80907  0.19093  1
 O  O3  1  0.30983  0.30983  0.19017  1
 O  O4  1  0.80983  0.80983  0.69017  1
 O  O5  1  0.19093  0.19093  0.80907  1
 O  O6  1  0.31151  0.31151  0.68849  1
 O  O7  1  0.30428  0.84804  0.15196  1
 O  O8  1  0.69017  0.69017  0.80983  1
 O  O9  1  0.69572  0.15196  0.84804  1
 O  O10  1  0.15196  0.69572  0.30428  1
 O  O11  1  0.68849  0.68849  0.31151  1
 O  O12  1  0.19017  0.19017  0.30983  1
 O  O13  1  0.50000  0.50000  0.50000  1
 Y  Y1  1  0.50000  -0.00000  0.50000  1
 Y  Y2  1  -0.00000  0.50000  0.00000  1
