CIF file written using JARVIS-Tools package.
data_Al4Ni15Sn
_symmetry_space_group_name_H-M  'P4/mmm'
_cell_length_a       3.59825
_cell_length_b       3.59825
_cell_length_c       17.8148
_cell_angle_alpha    90
_cell_angle_beta     90
_cell_angle_gamma    90

_symmetry_Int_Tables_number  123
_chemical_formula_structural  Al4Ni15Sn
_chemical_formula_sum  Al4Ni5Sn
_cell_volume  230.65520690122685
_cell_formula_units_Z  1
loop_
  _symmetry_equiv_pos_site_id
 _symmetry_equiv_pos_as_xyz
 1  'x, y, z'
loop_
 _atom_site_type_symbol
 _atom_site_label
 _atom_site_symmetry_multiplicity
 _atom_site_fract_x
 _atom_site_fract_y
 _atom_site_fract_z
 _atom_site_fract_occupancy
 Al  Al1  1  0.00000  0.00000  0.20675  1
 Al  Al2  1  0.00000  0.00000  0.40218  1
 Al  Al3  1  0.00000  0.00000  0.59782  1
 Al  Al4  1  0.00000  0.00000  0.79325  1
 Ni  Ni1  1  0.50000  0.50000  0.00000  1
 Ni  Ni2  1  0.50000  0.50000  0.20614  1
 Ni  Ni3  1  0.50000  0.50000  0.40209  1
 Ni  Ni4  1  0.50000  0.50000  0.59791  1
 Ni  Ni5  1  0.50000  0.50000  0.79386  1
 Ni  Ni6  1  0.00000  0.50000  0.89107  1
 Ni  Ni7  1  0.50000  0.00000  0.10893  1
 Ni  Ni8  1  0.50000  0.00000  0.69561  1
 Ni  Ni9  1  0.50000  0.00000  0.30439  1
 Ni  Ni10  1  0.50000  0.00000  0.89107  1
 Ni  Ni11  1  0.00000  0.50000  0.10893  1
 Ni  Ni12  1  0.00000  0.50000  0.30439  1
 Ni  Ni13  1  0.00000  0.50000  0.50000  1
 Ni  Ni14  1  0.00000  0.50000  0.69561  1
 Ni  Ni15  1  0.50000  0.00000  0.50000  1
 Sn  Sn1  1  0.00000  0.00000  0.00000  1
