CIF file written using JARVIS-Tools package.
data_Ho3Sb4Pd8
_symmetry_space_group_name_H-M  'Fm-3m'
_cell_length_a       9.35904
_cell_length_b       9.35904
_cell_length_c       9.35905
_cell_angle_alpha    60
_cell_angle_beta     60
_cell_angle_gamma    60

_symmetry_Int_Tables_number  225
_chemical_formula_structural  Ho3Sb4Pd8
_chemical_formula_sum  Ho6Sb8Pd6
_cell_volume  579.6686228888016
_cell_formula_units_Z  2
loop_
  _symmetry_equiv_pos_site_id
 _symmetry_equiv_pos_as_xyz
 1  'x, y, z'
loop_
 _atom_site_type_symbol
 _atom_site_label
 _atom_site_symmetry_multiplicity
 _atom_site_fract_x
 _atom_site_fract_y
 _atom_site_fract_z
 _atom_site_fract_occupancy
 Ho  Ho1  1  0.72564  0.27436  0.27436  1
 Ho  Ho2  1  0.27436  0.72564  0.72564  1
 Ho  Ho3  1  0.27436  0.72564  0.27436  1
 Ho  Ho4  1  0.72564  0.27436  0.72564  1
 Ho  Ho5  1  0.27436  0.27436  0.72564  1
 Ho  Ho6  1  0.72564  0.72564  0.27436  1
 Pd  Pd1  1  0.66611  0.66611  0.66611  1
 Pd  Pd2  1  0.35573  0.88142  0.88142  1
 Pd  Pd3  1  0.11858  0.11858  0.11858  1
 Pd  Pd4  1  0.88142  0.35573  0.88142  1
 Pd  Pd5  1  0.11858  0.11858  0.64427  1
 Pd  Pd6  1  0.11858  0.64427  0.11858  1
 Pd  Pd7  1  0.33389  0.33389  0.99833  1
 Pd  Pd8  1  0.88142  0.88142  0.88142  1
 Pd  Pd9  1  0.99833  0.33389  0.33389  1
 Pd  Pd10  1  0.88142  0.88142  0.35573  1
 Pd  Pd11  1  0.33389  0.99833  0.33389  1
 Pd  Pd12  1  0.33389  0.33389  0.33389  1
 Pd  Pd13  1  0.66611  0.00167  0.66611  1
 Pd  Pd14  1  0.64427  0.11858  0.11858  1
 Pd  Pd15  1  0.66611  0.66611  0.00167  1
 Pd  Pd16  1  0.00167  0.66611  0.66611  1
 Sb  Sb1  1  0.00000  0.50000  -0.00000  1
 Sb  Sb2  1  0.00000  0.00000  0.00000  1
 Sb  Sb3  1  0.50000  0.00000  -0.00000  1
 Sb  Sb4  1  0.00000  0.50000  0.50000  1
 Sb  Sb5  1  0.50000  0.00000  0.50000  1
 Sb  Sb6  1  0.00000  0.00000  0.50000  1
 Sb  Sb7  1  0.50000  0.50000  -0.00000  1
 Sb  Sb8  1  0.50000  0.50000  0.50000  1
