CIF file written using JARVIS-Tools package.
data_Ca5Rh2N6
_symmetry_space_group_name_H-M  'C2/c'
_cell_length_a       6.03026
_cell_length_b       6.60574
_cell_length_c       12.011
_cell_angle_alpha    90
_cell_angle_beta     102.812
_cell_angle_gamma    123.21

_symmetry_Int_Tables_number  15
_chemical_formula_structural  Ca5Rh2N6
_chemical_formula_sum  Ca0Rh4N2
_cell_volume  385.9853820171293
_cell_formula_units_Z  2
loop_
  _symmetry_equiv_pos_site_id
 _symmetry_equiv_pos_as_xyz
 1  'x, y, z'
loop_
 _atom_site_type_symbol
 _atom_site_label
 _atom_site_symmetry_multiplicity
 _atom_site_fract_x
 _atom_site_fract_y
 _atom_site_fract_z
 _atom_site_fract_occupancy
 Ca  Ca1  1  0.00000  0.39427  0.75000  1
 Ca  Ca2  1  0.33133  0.28184  0.23459  1
 Ca  Ca3  1  0.66867  0.71816  0.76541  1
 Ca  Ca4  1  0.33133  0.04949  0.73459  1
 Ca  Ca5  1  0.11807  0.31217  0.50035  1
 Ca  Ca6  1  0.66867  0.95051  0.26541  1
 Ca  Ca7  1  0.88193  0.68783  0.49965  1
 Ca  Ca8  1  0.11807  0.80590  0.00035  1
 Ca  Ca9  1  -0.00000  0.60573  0.25000  1
 Ca  Ca10  1  0.88193  0.19410  -0.00035  1
 N  N1  1  0.26531  0.58284  0.12859  1
 N  N2  1  0.89646  0.00229  0.62539  1
 N  N3  1  0.57443  0.22599  0.10760  1
 N  N4  1  0.42557  0.65156  0.39240  1
 N  N5  1  0.42557  0.77401  0.89240  1
 N  N6  1  0.57443  0.34844  0.60760  1
 N  N7  1  0.73469  0.31753  0.37141  1
 N  N8  1  0.89646  0.89416  0.12539  1
 N  N9  1  0.26531  0.68247  0.62859  1
 N  N10  1  0.10354  -0.00229  0.37461  1
 N  N11  1  0.10354  0.10584  0.87461  1
 N  N12  1  0.73469  0.41716  0.87141  1
 Rh  Rh1  1  0.47510  0.30775  0.96402  1
 Rh  Rh2  1  0.47510  0.16735  0.46402  1
 Rh  Rh3  1  0.52490  0.69225  0.03598  1
 Rh  Rh4  1  0.52490  0.83265  0.53598  1
