CIF file written using JARVIS-Tools package.
data_Ga5CuSe8
_symmetry_space_group_name_H-M  'P-42m'
_cell_length_a       5.50793
_cell_length_b       5.50793
_cell_length_c       11.2175
_cell_angle_alpha    90
_cell_angle_beta     90
_cell_angle_gamma    90

_symmetry_Int_Tables_number  111
_chemical_formula_structural  Ga5CuSe8
_chemical_formula_sum  Ga5CuSe8
_cell_volume  340.308853956907
_cell_formula_units_Z  1
loop_
  _symmetry_equiv_pos_site_id
 _symmetry_equiv_pos_as_xyz
 1  'x, y, z'
loop_
 _atom_site_type_symbol
 _atom_site_label
 _atom_site_symmetry_multiplicity
 _atom_site_fract_x
 _atom_site_fract_y
 _atom_site_fract_z
 _atom_site_fract_occupancy
 Cu  Cu1  1  0.50000  0.50000  0.50000  1
 Ga  Ga1  1  0.00000  0.50000  0.25543  1
 Ga  Ga2  1  0.50000  0.00000  0.74457  1
 Ga  Ga3  1  0.00000  0.50000  0.74457  1
 Ga  Ga4  1  0.50000  0.00000  0.25543  1
 Ga  Ga5  1  0.00000  0.00000  0.00000  1
 Se  Se1  1  0.26976  0.26976  0.11475  1
 Se  Se2  1  0.73024  0.73024  0.11475  1
 Se  Se3  1  0.26976  0.73024  0.88525  1
 Se  Se4  1  0.73024  0.26976  0.88525  1
 Se  Se5  1  0.23566  0.23566  0.61597  1
 Se  Se6  1  0.76434  0.76434  0.61597  1
 Se  Se7  1  0.23566  0.76434  0.38403  1
 Se  Se8  1  0.76434  0.23566  0.38403  1
