CIF file written using JARVIS-Tools package.
data_Mn2O3F
_symmetry_space_group_name_H-M  'Cmmm'
_cell_length_a       5.86046
_cell_length_b       6.23625
_cell_length_c       7.23324
_cell_angle_alpha    90
_cell_angle_beta     113.898
_cell_angle_gamma    90

_symmetry_Int_Tables_number  65
_chemical_formula_structural  Mn2O3F
_chemical_formula_sum  Mn8O2F4
_cell_volume  241.6921129638072
_cell_formula_units_Z  4
loop_
  _symmetry_equiv_pos_site_id
 _symmetry_equiv_pos_as_xyz
 1  'x, y, z'
loop_
 _atom_site_type_symbol
 _atom_site_label
 _atom_site_symmetry_multiplicity
 _atom_site_fract_x
 _atom_site_fract_y
 _atom_site_fract_z
 _atom_site_fract_occupancy
 F  F1  1  0.10348  0.50000  0.70697  1
 F  F2  1  0.84757  0.00000  0.19513  1
 F  F3  1  0.65243  0.00000  0.80487  1
 F  F4  1  0.39652  0.50000  0.29303  1
 Mn  Mn1  1  0.25000  0.50000  0.50000  1
 Mn  Mn2  1  0.75000  0.50000  0.50000  1
 Mn  Mn3  1  0.01197  0.00000  0.00000  1
 Mn  Mn4  1  0.00963  0.00000  0.51926  1
 Mn  Mn5  1  0.48803  0.00000  -0.00000  1
 Mn  Mn6  1  0.49037  0.00000  0.48074  1
 Mn  Mn7  1  0.75000  0.50000  0.00000  1
 Mn  Mn8  1  0.25000  0.50000  -0.00000  1
 O  O1  1  0.50105  0.69590  0.00000  1
 O  O2  1  0.34544  0.00000  0.19087  1
 O  O3  1  -0.00105  0.30410  -0.00000  1
 O  O4  1  0.50105  0.30410  0.00000  1
 O  O5  1  -0.00105  0.69590  -0.00000  1
 O  O6  1  0.75000  0.19438  0.50000  1
 O  O7  1  0.15456  0.00000  0.80913  1
 O  O8  1  0.59352  0.50000  0.68704  1
 O  O9  1  0.25000  0.80562  0.50000  1
 O  O10  1  0.75000  0.80562  0.50000  1
 O  O11  1  0.25000  0.19438  0.50000  1
 O  O12  1  0.90648  0.50000  0.31296  1
