CIF file written using JARVIS-Tools package.
data_ErTeAs
_symmetry_space_group_name_H-M  'Pnma'
_cell_length_a       4.05764
_cell_length_b       7.49635
_cell_length_c       9.8547
_cell_angle_alpha    90
_cell_angle_beta     90
_cell_angle_gamma    90

_symmetry_Int_Tables_number  62
_chemical_formula_structural  ErTeAs
_chemical_formula_sum  Er4Te4As4
_cell_volume  299.7553002774848
_cell_formula_units_Z  4
loop_
  _symmetry_equiv_pos_site_id
 _symmetry_equiv_pos_as_xyz
 1  'x, y, z'
loop_
 _atom_site_type_symbol
 _atom_site_label
 _atom_site_symmetry_multiplicity
 _atom_site_fract_x
 _atom_site_fract_y
 _atom_site_fract_z
 _atom_site_fract_occupancy
 As  As1  1  0.25000  0.59952  0.54034  1
 As  As2  1  0.75000  0.40048  0.45966  1
 As  As3  1  0.75000  0.90048  0.04034  1
 As  As4  1  0.25000  0.09952  0.95966  1
 Er  Er1  1  0.25000  0.73315  0.84186  1
 Er  Er2  1  0.75000  0.26685  0.15814  1
 Er  Er3  1  0.75000  0.76685  0.34186  1
 Er  Er4  1  0.25000  0.23315  0.65814  1
 Te  Te1  1  0.25000  0.58288  0.14902  1
 Te  Te2  1  0.75000  0.41712  0.85098  1
 Te  Te3  1  0.75000  0.91712  0.64902  1
 Te  Te4  1  0.25000  0.08288  0.35098  1
