CIF file written using JARVIS-Tools package.
data_Dy3Fe2Si7
_symmetry_space_group_name_H-M  'Cmmm'
_cell_length_a       12.4335
_cell_length_b       12.4335
_cell_length_c       4.09402
_cell_angle_alpha    90
_cell_angle_beta     90
_cell_angle_gamma    161.333

_symmetry_Int_Tables_number  65
_chemical_formula_structural  Dy3Fe2Si7
_chemical_formula_sum  Dy3Fe2Si7
_cell_volume  202.57535194394637
_cell_formula_units_Z  1
loop_
  _symmetry_equiv_pos_site_id
 _symmetry_equiv_pos_as_xyz
 1  'x, y, z'
loop_
 _atom_site_type_symbol
 _atom_site_label
 _atom_site_symmetry_multiplicity
 _atom_site_fract_x
 _atom_site_fract_y
 _atom_site_fract_z
 _atom_site_fract_occupancy
 Dy  Dy1  1  0.09774  0.90226  0.50000  1
 Dy  Dy2  1  0.46837  0.53163  0.50000  1
 Dy  Dy3  1  0.78306  0.21694  0.00000  1
 Fe  Fe1  1  0.65560  0.34440  0.00000  1
 Fe  Fe2  1  0.91050  0.08950  0.00000  1
 Si  Si1  1  0.37308  0.62692  0.00000  1
 Si  Si2  1  0.56309  0.43691  0.00000  1
 Si  Si3  1  0.87342  0.12658  0.50000  1
 Si  Si4  1  0.00302  0.99698  0.00000  1
 Si  Si5  1  0.19303  0.80697  0.00000  1
 Si  Si6  1  0.28310  0.71690  0.50000  1
 Si  Si7  1  0.69269  0.30731  0.50000  1
