CIF file written using JARVIS-Tools package.
data_Bi4Te3N2
_symmetry_space_group_name_H-M  'Pnnm'
_cell_length_a       7.66606
_cell_length_b       16.398
_cell_length_c       4.11555
_cell_angle_alpha    90
_cell_angle_beta     90
_cell_angle_gamma    90

_symmetry_Int_Tables_number  58
_chemical_formula_structural  Bi4Te3N2
_chemical_formula_sum  Bi8Te6N4
_cell_volume  517.3563083365215
_cell_formula_units_Z  2
loop_
  _symmetry_equiv_pos_site_id
 _symmetry_equiv_pos_as_xyz
 1  'x, y, z'
loop_
 _atom_site_type_symbol
 _atom_site_label
 _atom_site_symmetry_multiplicity
 _atom_site_fract_x
 _atom_site_fract_y
 _atom_site_fract_z
 _atom_site_fract_occupancy
 Bi  Bi1  1  0.69123  0.93743  0.50000  1
 Bi  Bi2  1  0.30877  0.06257  0.50000  1
 Bi  Bi3  1  0.19123  0.56257  0.00000  1
 Bi  Bi4  1  0.80877  0.43743  0.00000  1
 Bi  Bi5  1  0.79212  0.64214  0.50000  1
 Bi  Bi6  1  0.20788  0.35786  0.50000  1
 Bi  Bi7  1  0.29212  0.85786  0.00000  1
 Bi  Bi8  1  0.70788  0.14214  0.00000  1
 N  N1  1  0.61025  0.07373  0.50000  1
 N  N2  1  0.11025  0.42627  0.00000  1
 N  N3  1  0.88975  0.57373  0.00000  1
 N  N4  1  0.38975  0.92627  0.50000  1
 Te  Te1  1  0.50000  0.50000  0.50000  1
 Te  Te2  1  0.00000  0.00000  0.00000  1
 Te  Te3  1  0.84343  0.28057  0.50000  1
 Te  Te4  1  0.34343  0.21943  0.00000  1
 Te  Te5  1  0.15657  0.71943  0.50000  1
 Te  Te6  1  0.65657  0.78057  0.00000  1
