CIF file written using JARVIS-Tools package.
data_Er2Al9Pd3
_symmetry_space_group_name_H-M  'Cmcm'
_cell_length_a       7.62634
_cell_length_b       7.62635
_cell_length_c       9.44947
_cell_angle_alpha    90
_cell_angle_beta     90
_cell_angle_gamma    119.59

_symmetry_Int_Tables_number  63
_chemical_formula_structural  Er2Al9Pd3
_chemical_formula_sum  Er4Al8Pd6
_cell_volume  477.9168073810322
_cell_formula_units_Z  2
loop_
  _symmetry_equiv_pos_site_id
 _symmetry_equiv_pos_as_xyz
 1  'x, y, z'
loop_
 _atom_site_type_symbol
 _atom_site_label
 _atom_site_symmetry_multiplicity
 _atom_site_fract_x
 _atom_site_fract_y
 _atom_site_fract_z
 _atom_site_fract_occupancy
 Al  Al1  1  0.66516  0.00007  0.57687  1
 Al  Al2  1  0.33484  0.99993  0.42313  1
 Al  Al3  1  0.99993  0.33484  0.42313  1
 Al  Al4  1  0.99993  0.33484  0.07687  1
 Al  Al5  1  0.33484  0.99993  0.07687  1
 Al  Al6  1  0.33292  0.33292  0.56218  1
 Al  Al7  1  0.66708  0.66708  0.43782  1
 Al  Al8  1  0.66708  0.66708  0.06218  1
 Al  Al9  1  0.33292  0.33292  0.93782  1
 Al  Al10  1  0.33723  0.54734  0.25000  1
 Al  Al11  1  0.66277  0.45266  0.75000  1
 Al  Al12  1  0.54734  0.33723  0.25000  1
 Al  Al13  1  0.45266  0.66277  0.75000  1
 Al  Al14  1  0.87161  0.87161  0.75000  1
 Al  Al15  1  0.12839  0.12839  0.25000  1
 Al  Al16  1  0.66516  0.00007  0.92313  1
 Al  Al17  1  0.00007  0.66516  0.57687  1
 Al  Al18  1  0.00007  0.66516  0.92313  1
 Er  Er1  1  0.99444  0.66986  0.25000  1
 Er  Er2  1  0.33014  0.00556  0.75000  1
 Er  Er3  1  0.66986  0.99444  0.25000  1
 Er  Er4  1  0.00556  0.33014  0.75000  1
 Pd  Pd1  1  0.00000  0.00000  0.00000  1
 Pd  Pd2  1  0.67164  0.32836  0.00000  1
 Pd  Pd3  1  0.32836  0.67164  0.00000  1
 Pd  Pd4  1  0.32836  0.67164  0.50000  1
 Pd  Pd5  1  0.67164  0.32836  0.50000  1
 Pd  Pd6  1  0.00000  0.00000  0.50000  1
