CIF file written using JARVIS-Tools package.
data_TiV4CoO12
_symmetry_space_group_name_H-M  'C2'
_cell_length_a       6.71615
_cell_length_b       6.71616
_cell_length_c       5.70462
_cell_angle_alpha    74.7929
_cell_angle_beta     74.7929
_cell_angle_gamma    83.7722

_symmetry_Int_Tables_number  5
_chemical_formula_structural  TiV4CoO12
_chemical_formula_sum  TiV4CoO2
_cell_volume  239.39438016501768
_cell_formula_units_Z  1
loop_
  _symmetry_equiv_pos_site_id
 _symmetry_equiv_pos_as_xyz
 1  'x, y, z'
loop_
 _atom_site_type_symbol
 _atom_site_label
 _atom_site_symmetry_multiplicity
 _atom_site_fract_x
 _atom_site_fract_y
 _atom_site_fract_z
 _atom_site_fract_occupancy
 Co  Co1  1  0.91259  0.08741  0.00000  1
 O  O1  1  0.36496  0.91452  0.51580  1
 O  O2  1  0.97248  0.81310  0.87661  1
 O  O3  1  0.91186  0.37258  0.01943  1
 O  O4  1  0.08548  0.63504  0.48420  1
 O  O5  1  0.61708  0.65430  0.81614  1
 O  O6  1  0.81110  0.96778  0.39551  1
 O  O7  1  0.66397  0.62359  0.31703  1
 O  O8  1  0.34570  0.38292  0.18386  1
 O  O9  1  0.03222  0.18890  0.60449  1
 O  O10  1  0.37641  0.33603  0.68297  1
 O  O11  1  0.18690  0.02752  0.12339  1
 O  O12  1  0.62742  0.08814  0.98057  1
 Ti  Ti1  1  0.08775  0.91225  0.50000  1
 V  V1  1  0.20297  0.38904  0.48779  1
 V  V2  1  0.39025  0.20009  -0.00727  1
 V  V3  1  0.61096  0.79703  0.51221  1
 V  V4  1  0.79991  0.60975  0.00727  1
