CIF file written using JARVIS-Tools package.
data_HfO
_symmetry_space_group_name_H-M  'Pmm2'
_cell_length_a       3.13042
_cell_length_b       6.18657
_cell_length_c       3.21055
_cell_angle_alpha    89.899
_cell_angle_beta     89.9056
_cell_angle_gamma    120.183

_symmetry_Int_Tables_number  25
_chemical_formula_structural  HfO
_chemical_formula_sum  Hf2O2
_cell_volume  53.747461427766595
_cell_formula_units_Z  2
loop_
  _symmetry_equiv_pos_site_id
 _symmetry_equiv_pos_as_xyz
 1  'x, y, z'
loop_
 _atom_site_type_symbol
 _atom_site_label
 _atom_site_symmetry_multiplicity
 _atom_site_fract_x
 _atom_site_fract_y
 _atom_site_fract_z
 _atom_site_fract_occupancy
 Hf  Hf1  1  0.15497  -0.00163  0.20468  1
 Hf  Hf2  1  0.15184  0.49459  0.70550  1
 O  O1  1  0.54282  0.38573  0.20582  1
 O  O2  1  0.91152  0.75537  0.70527  1
