CIF file written using JARVIS-Tools package.
data_Li7MnO3F3
_symmetry_space_group_name_H-M  'P1'
_cell_length_a       5.38975
_cell_length_b       6.49023
_cell_length_c       10.1343
_cell_angle_alpha    84.4592
_cell_angle_beta     77.108
_cell_angle_gamma    120.871

_symmetry_Int_Tables_number  1
_chemical_formula_structural  Li7MnO3F3
_chemical_formula_sum  Li4Mn2O6F6
_cell_volume  287.02131803256566
_cell_formula_units_Z  2
loop_
  _symmetry_equiv_pos_site_id
 _symmetry_equiv_pos_as_xyz
 1  'x, y, z'
loop_
 _atom_site_type_symbol
 _atom_site_label
 _atom_site_symmetry_multiplicity
 _atom_site_fract_x
 _atom_site_fract_y
 _atom_site_fract_z
 _atom_site_fract_occupancy
 F  F1  1  0.73858  0.07844  0.21511  1
 F  F2  1  0.90975  0.58257  0.12145  1
 F  F3  1  0.24592  0.42136  0.29512  1
 F  F4  1  0.09456  0.93296  0.38074  1
 F  F5  1  0.72667  0.58576  0.70790  1
 F  F6  1  0.60812  0.79026  0.95344  1
 Li  Li1  1  0.09308  0.61231  0.74941  1
 Li  Li2  1  0.44772  0.94586  0.39423  1
 Li  Li3  1  0.54233  0.54129  0.12348  1
 Li  Li4  1  0.09574  0.09927  0.22292  1
 Li  Li5  1  0.20237  0.68425  0.95707  1
 Li  Li6  1  0.96321  0.90609  0.73010  1
 Li  Li7  1  0.88248  0.39025  0.27635  1
 Li  Li8  1  0.51717  0.00872  0.61769  1
 Li  Li9  1  0.47779  0.50056  0.89102  1
 Li  Li10  1  0.27329  0.23091  0.44469  1
 Li  Li11  1  0.29723  0.38340  0.67148  1
 Li  Li12  1  0.75870  0.80512  0.53413  1
 Li  Li13  1  0.72754  0.24857  0.05549  1
 Li  Li14  1  0.69711  0.11553  0.81553  1
 Mn  Mn1  1  0.98564  0.44879  0.51618  1
 Mn  Mn2  1  0.10242  0.06463  0.95018  1
 O  O1  1  0.62239  0.26931  0.46530  1
 O  O2  1  0.39206  0.25430  0.04293  1
 O  O3  1  0.25502  0.92468  0.80927  1
 O  O4  1  0.34750  0.69092  0.55999  1
 O  O5  1  0.93412  0.12976  0.62406  1
 O  O6  1  0.06149  0.35411  0.87474  1
