CIF file written using JARVIS-Tools package.
data_Na5Ni2P2C2O14
_symmetry_space_group_name_H-M  'Pm'
_cell_length_a       6.47278
_cell_length_b       5.08577
_cell_length_c       8.8561
_cell_angle_alpha    88.926
_cell_angle_beta     90
_cell_angle_gamma    90

_symmetry_Int_Tables_number  6
_chemical_formula_structural  Na5Ni2P2C2O14
_chemical_formula_sum  Na5Ni2P2C2O4
_cell_volume  291.4832548513212
_cell_formula_units_Z  1
loop_
  _symmetry_equiv_pos_site_id
 _symmetry_equiv_pos_as_xyz
 1  'x, y, z'
loop_
 _atom_site_type_symbol
 _atom_site_label
 _atom_site_symmetry_multiplicity
 _atom_site_fract_x
 _atom_site_fract_y
 _atom_site_fract_z
 _atom_site_fract_occupancy
 C  C1  1  0.00000  0.72018  0.06796  1
 C  C2  1  0.50000  0.28068  0.92722  1
 Na  Na1  1  0.26273  0.24020  0.25703  1
 Na  Na2  1  0.73727  0.24020  0.25703  1
 Na  Na3  1  0.75369  0.75642  0.74154  1
 Na  Na4  1  0.24631  0.75642  0.74154  1
 Na  Na5  1  0.00000  0.22874  0.92330  1
 Ni  Ni1  1  0.00000  0.77727  0.35087  1
 Ni  Ni2  1  0.50000  0.22179  0.65338  1
 O  O1  1  0.50000  0.29424  0.06847  1
 O  O2  1  0.50000  0.05513  0.85588  1
 O  O3  1  0.00000  0.50793  0.15096  1
 O  O4  1  0.30810  0.77860  0.32384  1
 O  O5  1  0.69190  0.77860  0.32384  1
 O  O6  1  0.00000  0.94415  0.13749  1
 O  O7  1  0.50000  0.40093  0.45442  1
 O  O8  1  0.50000  0.48322  0.83429  1
 O  O9  1  0.81244  0.21773  0.68308  1
 O  O10  1  0.18756  0.21773  0.68308  1
 O  O11  1  0.00000  0.15743  0.42854  1
 O  O12  1  0.00000  0.60006  0.55395  1
 O  O13  1  0.50000  0.84930  0.57282  1
 O  O14  1  0.00000  0.71393  0.92291  1
 P  P1  1  0.50000  0.70711  0.42059  1
 P  P2  1  0.00000  0.29506  0.58092  1
