CIF file written using JARVIS-Tools package.
data_Er2Si5Rh3
_symmetry_space_group_name_H-M  'Ibam'
_cell_length_a       8.12895
_cell_length_b       8.12896
_cell_length_c       8.12895
_cell_angle_alpha    138.611
_cell_angle_beta     105.252
_cell_angle_gamma    89.2381

_symmetry_Int_Tables_number  72
_chemical_formula_structural  Er2Si5Rh3
_chemical_formula_sum  Er4Si0Rh6
_cell_volume  328.07213337746447
_cell_formula_units_Z  2
loop_
  _symmetry_equiv_pos_site_id
 _symmetry_equiv_pos_as_xyz
 1  'x, y, z'
loop_
 _atom_site_type_symbol
 _atom_site_label
 _atom_site_symmetry_multiplicity
 _atom_site_fract_x
 _atom_site_fract_y
 _atom_site_fract_z
 _atom_site_fract_occupancy
 Er  Er1  1  0.63711  0.86788  0.76924  1
 Er  Er2  1  0.36289  0.13212  0.23076  1
 Er  Er3  1  0.09864  0.36788  0.73076  1
 Er  Er4  1  0.90136  0.63212  0.26924  1
 Rh  Rh1  1  0.03069  0.14049  0.89020  1
 Rh  Rh2  1  0.74971  0.35951  0.39020  1
 Rh  Rh3  1  0.25029  0.64049  0.60980  1
 Rh  Rh4  1  0.50000  0.75000  0.25000  1
 Rh  Rh5  1  0.96931  0.85951  0.10980  1
 Rh  Rh6  1  0.50000  0.25000  0.75000  1
 Si  Si1  1  0.72154  0.47154  0.75000  1
 Si  Si2  1  0.72154  0.97154  0.25000  1
 Si  Si3  1  0.27846  0.02846  0.75000  1
 Si  Si4  1  0.44627  0.60461  0.84166  1
 Si  Si5  1  0.76295  0.10461  0.65834  1
 Si  Si6  1  0.23705  0.89539  0.34166  1
 Si  Si7  1  0.00000  0.75000  0.75000  1
 Si  Si8  1  0.00000  0.25000  0.25000  1
 Si  Si9  1  0.55373  0.39539  0.15834  1
 Si  Si10  1  0.27846  0.52846  0.25000  1
