CIF file written using JARVIS-Tools package.
data_Li5Mn5Sn2O12
_symmetry_space_group_name_H-M  'C2'
_cell_length_a       5.34456
_cell_length_b       5.34456
_cell_length_c       10.1329
_cell_angle_alpha    84.2885
_cell_angle_beta     84.2885
_cell_angle_gamma    120.43

_symmetry_Int_Tables_number  5
_chemical_formula_structural  Li5Mn5Sn2O12
_chemical_formula_sum  Li5Mn5Sn2O2
_cell_volume  244.51015813563026
_cell_formula_units_Z  1
loop_
  _symmetry_equiv_pos_site_id
 _symmetry_equiv_pos_as_xyz
 1  'x, y, z'
loop_
 _atom_site_type_symbol
 _atom_site_label
 _atom_site_symmetry_multiplicity
 _atom_site_fract_x
 _atom_site_fract_y
 _atom_site_fract_z
 _atom_site_fract_occupancy
 Li  Li1  1  0.80786  0.67548  0.25032  1
 Li  Li2  1  0.66777  0.82443  0.74494  1
 Li  Li3  1  0.32452  0.19214  0.74968  1
 Li  Li4  1  0.17557  0.33223  0.25506  1
 Li  Li5  1  0.07919  0.92081  0.50000  1
 Mn  Mn1  1  0.91547  0.08453  -0.00000  1
 Mn  Mn2  1  0.00547  0.51383  0.74003  1
 Mn  Mn3  1  0.48617  0.99453  0.25997  1
 Mn  Mn4  1  0.58037  0.41963  -0.00000  1
 Mn  Mn5  1  0.42282  0.57718  0.50000  1
 O  O1  1  0.39563  0.84728  0.61086  1
 O  O2  1  0.29129  0.47505  0.87717  1
 O  O3  1  0.52495  0.70871  0.12283  1
 O  O4  1  0.47331  0.30857  0.38500  1
 O  O5  1  0.69143  0.52669  0.61500  1
 O  O6  1  0.61773  0.12277  0.87611  1
 O  O7  1  0.97631  0.79743  0.87307  1
 O  O8  1  0.76998  0.93981  0.38387  1
 O  O9  1  0.06019  0.23002  0.61613  1
 O  O10  1  0.20257  0.02369  0.12693  1
 O  O11  1  0.15272  0.60437  0.38914  1
 O  O12  1  0.87723  0.38227  0.12389  1
 Sn  Sn1  1  0.24777  0.75223  -0.00000  1
 Sn  Sn2  1  0.75369  0.24631  0.50000  1
