CIF file written using JARVIS-Tools package.
data_Li2CrCo3O8
_symmetry_space_group_name_H-M  'R3m'
_cell_length_a       5.70965
_cell_length_b       9.75461
_cell_length_c       5.70946
_cell_angle_alpha    72.9802
_cell_angle_beta     60.0071
_cell_angle_gamma    73.0036

_symmetry_Int_Tables_number  160
_chemical_formula_structural  Li2CrCo3O8
_chemical_formula_sum  Li4Cr2Co6O6
_cell_volume  259.22186902668483
_cell_formula_units_Z  2
loop_
  _symmetry_equiv_pos_site_id
 _symmetry_equiv_pos_as_xyz
 1  'x, y, z'
loop_
 _atom_site_type_symbol
 _atom_site_label
 _atom_site_symmetry_multiplicity
 _atom_site_fract_x
 _atom_site_fract_y
 _atom_site_fract_z
 _atom_site_fract_occupancy
 Co  Co1  1  0.00016  0.50108  0.00011  1
 Co  Co2  1  0.50018  0.00106  -0.00139  1
 Co  Co3  1  0.49870  0.50112  0.00006  1
 Co  Co4  1  0.99869  0.00112  0.50012  1
 Co  Co5  1  0.00019  0.50106  0.49855  1
 Co  Co6  1  0.50015  0.00108  0.50017  1
 Cr  Cr1  1  0.25262  0.24174  0.25283  1
 Cr  Cr2  1  0.75262  0.74174  0.75290  1
 Li  Li1  1  0.56037  0.31866  0.56048  1
 Li  Li2  1  0.93718  0.18827  0.93728  1
 Li  Li3  1  0.06036  0.81866  0.06056  1
 Li  Li4  1  0.43717  0.68827  0.43730  1
 O  O1  1  0.85342  0.88117  0.85344  1
 O  O2  1  0.86760  0.39707  0.86763  1
 O  O3  1  0.14060  0.11704  0.14030  1
 O  O4  1  0.63133  0.10636  0.63117  1
 O  O5  1  0.13134  0.60636  0.13111  1
 O  O6  1  0.35343  0.38117  0.35338  1
 O  O7  1  0.36758  0.89707  0.36769  1
 O  O8  1  0.10190  0.61710  0.64043  1
 O  O9  1  0.85337  0.88118  0.41207  1
 O  O10  1  0.14056  0.11706  0.60209  1
 O  O11  1  0.64055  0.61704  0.10211  1
 O  O12  1  0.60191  0.11710  0.14048  1
 O  O13  1  0.91200  0.38109  0.35340  1
 O  O14  1  0.35339  0.38118  0.91199  1
 O  O15  1  0.41199  0.88109  0.85346  1
 O  O16  1  0.64064  0.61705  0.64026  1
