CIF file written using JARVIS-Tools package.
data_Ba2BN2
_symmetry_space_group_name_H-M  'I4/mmm'
_cell_length_a       6.46262
_cell_length_b       6.46262
_cell_length_c       6.46262
_cell_angle_alpha    142.703
_cell_angle_beta     142.703
_cell_angle_gamma    53.771

_symmetry_Int_Tables_number  139
_chemical_formula_structural  Ba2BN2
_chemical_formula_sum  Ba2BN2
_cell_volume  98.45911122032777
_cell_formula_units_Z  1
loop_
  _symmetry_equiv_pos_site_id
 _symmetry_equiv_pos_as_xyz
 1  'x, y, z'
loop_
 _atom_site_type_symbol
 _atom_site_label
 _atom_site_symmetry_multiplicity
 _atom_site_fract_x
 _atom_site_fract_y
 _atom_site_fract_z
 _atom_site_fract_occupancy
 B  B1  1  0.00000  0.00000  0.00000  1
 Ba  Ba1  1  0.64593  0.64593  0.00000  1
 Ba  Ba2  1  0.35407  0.35407  0.00000  1
 N  N1  1  0.88132  0.88132  0.00000  1
 N  N2  1  0.11868  0.11868  -0.00000  1
