CIF file written using JARVIS-Tools package.
data_Zn2Sb2O5
_symmetry_space_group_name_H-M  'Pbam'
_cell_length_a       3.23343
_cell_length_b       8.76438
_cell_length_c       8.49249
_cell_angle_alpha    90
_cell_angle_beta     90
_cell_angle_gamma    90

_symmetry_Int_Tables_number  55
_chemical_formula_structural  Zn2Sb2O5
_chemical_formula_sum  Zn4Sb4O0
_cell_volume  240.66868306895887
_cell_formula_units_Z  2
loop_
  _symmetry_equiv_pos_site_id
 _symmetry_equiv_pos_as_xyz
 1  'x, y, z'
loop_
 _atom_site_type_symbol
 _atom_site_label
 _atom_site_symmetry_multiplicity
 _atom_site_fract_x
 _atom_site_fract_y
 _atom_site_fract_z
 _atom_site_fract_occupancy
 O  O1  1  0.50000  0.77434  0.17250  1
 O  O2  1  0.00000  0.50000  0.50000  1
 O  O3  1  0.00000  0.97393  0.66873  1
 O  O4  1  0.00000  0.47393  0.83127  1
 O  O5  1  0.00000  0.00000  0.00000  1
 O  O6  1  0.50000  0.72566  0.67250  1
 O  O7  1  0.50000  0.27434  0.32750  1
 O  O8  1  0.00000  0.02607  0.33127  1
 O  O9  1  0.50000  0.22566  0.82750  1
 O  O10  1  0.00000  0.52607  0.16873  1
 Sb  Sb1  1  0.00000  0.21317  0.46953  1
 Sb  Sb2  1  0.00000  0.78683  0.53047  1
 Sb  Sb3  1  0.00000  0.28683  0.96953  1
 Sb  Sb4  1  0.00000  0.71317  0.03047  1
 Zn  Zn1  1  0.50000  0.99257  0.81285  1
 Zn  Zn2  1  0.50000  0.00743  0.18715  1
 Zn  Zn3  1  0.50000  0.49257  0.68715  1
 Zn  Zn4  1  0.50000  0.50743  0.31285  1
