CIF file written using JARVIS-Tools package.
data_Fe10O9F11
_symmetry_space_group_name_H-M  'Pm'
_cell_length_a       15.2848
_cell_length_b       4.64588
_cell_length_c       4.62368
_cell_angle_alpha    87.5936
_cell_angle_beta     90
_cell_angle_gamma    90

_symmetry_Int_Tables_number  6
_chemical_formula_structural  Fe10O9F11
_chemical_formula_sum  Fe0O9F
_cell_volume  328.04502675310715
_cell_formula_units_Z  1
loop_
  _symmetry_equiv_pos_site_id
 _symmetry_equiv_pos_as_xyz
 1  'x, y, z'
loop_
 _atom_site_type_symbol
 _atom_site_label
 _atom_site_symmetry_multiplicity
 _atom_site_fract_x
 _atom_site_fract_y
 _atom_site_fract_z
 _atom_site_fract_occupancy
 F  F1  1  0.69664  0.21053  0.21772  1
 F  F2  1  0.30336  0.21053  0.21772  1
 F  F3  1  0.50000  0.20632  0.21446  1
 F  F4  1  0.10557  0.18491  0.18094  1
 F  F5  1  0.80062  0.28746  0.70648  1
 F  F6  1  0.60052  0.29898  0.71640  1
 F  F7  1  0.39948  0.29898  0.71640  1
 F  F8  1  0.19938  0.28746  0.70648  1
 F  F9  1  0.89949  0.79870  0.78277  1
 F  F10  1  0.10051  0.79870  0.78277  1
 F  F11  1  0.89443  0.18491  0.18094  1
 Fe  Fe1  1  0.00000  0.00095  0.97128  1
 Fe  Fe2  1  0.70029  0.54590  0.50202  1
 Fe  Fe3  1  0.20864  0.97448  0.01106  1
 Fe  Fe4  1  0.40208  0.96686  0.00500  1
 Fe  Fe5  1  0.59792  0.96686  0.00500  1
 Fe  Fe6  1  0.79136  0.97448  0.01106  1
 Fe  Fe7  1  0.09228  0.50495  0.47242  1
 Fe  Fe8  1  0.50000  0.55849  0.51093  1
 Fe  Fe9  1  0.90772  0.50495  0.47242  1
 Fe  Fe10  1  0.29971  0.54590  0.50202  1
 O  O1  1  0.59827  0.69965  0.31896  1
 O  O2  1  0.29637  0.79992  0.81211  1
 O  O3  1  0.50000  0.80058  0.81222  1
 O  O4  1  0.70363  0.79992  0.81211  1
 O  O5  1  0.00000  0.70733  0.26369  1
 O  O6  1  0.00000  0.29616  0.68227  1
 O  O7  1  0.40173  0.69965  0.31896  1
 O  O8  1  0.80308  0.69276  0.29669  1
 O  O9  1  0.19692  0.69276  0.29669  1
