CIF file written using JARVIS-Tools package.
data_YbBa2Cu3O7
_symmetry_space_group_name_H-M  'Pmmm'
_cell_length_a       3.81718
_cell_length_b       3.86533
_cell_length_c       11.7347
_cell_angle_alpha    90
_cell_angle_beta     90
_cell_angle_gamma    90

_symmetry_Int_Tables_number  47
_chemical_formula_structural  YbBa2Cu3O7
_chemical_formula_sum  YbBa2Cu3O7
_cell_volume  173.14176837326545
_cell_formula_units_Z  1
loop_
  _symmetry_equiv_pos_site_id
 _symmetry_equiv_pos_as_xyz
 1  'x, y, z'
loop_
 _atom_site_type_symbol
 _atom_site_label
 _atom_site_symmetry_multiplicity
 _atom_site_fract_x
 _atom_site_fract_y
 _atom_site_fract_z
 _atom_site_fract_occupancy
 Ba  Ba1  1  0.50000  0.50000  0.19054  1
 Ba  Ba2  1  0.50000  0.50000  0.80946  1
 Cu  Cu1  1  0.00000  0.00000  0.36464  1
 Cu  Cu2  1  0.00000  0.00000  0.63536  1
 Cu  Cu3  1  0.00000  0.00000  0.00000  1
 O  O1  1  0.50000  0.00000  0.37590  1
 O  O2  1  0.50000  0.00000  0.62410  1
 O  O3  1  0.00000  0.50000  0.37556  1
 O  O4  1  0.00000  0.50000  0.62444  1
 O  O5  1  0.00000  0.00000  0.15787  1
 O  O6  1  0.00000  0.00000  0.84213  1
 O  O7  1  0.00000  0.50000  0.00000  1
 Yb  Yb1  1  0.50000  0.50000  0.50000  1
