CIF file written using JARVIS-Tools package.
data_Ce2Al9Rh3
_symmetry_space_group_name_H-M  'Cmcm'
_cell_length_a       7.61728
_cell_length_b       7.61728
_cell_length_c       9.52351
_cell_angle_alpha    90
_cell_angle_beta     90
_cell_angle_gamma    119.496

_symmetry_Int_Tables_number  63
_chemical_formula_structural  Ce2Al9Rh3
_chemical_formula_sum  Ce4Al8Rh6
_cell_volume  480.95967639370025
_cell_formula_units_Z  2
loop_
  _symmetry_equiv_pos_site_id
 _symmetry_equiv_pos_as_xyz
 1  'x, y, z'
loop_
 _atom_site_type_symbol
 _atom_site_label
 _atom_site_symmetry_multiplicity
 _atom_site_fract_x
 _atom_site_fract_y
 _atom_site_fract_z
 _atom_site_fract_occupancy
 Al  Al1  1  0.33551  0.00295  0.07476  1
 Al  Al2  1  0.66449  0.99705  0.57476  1
 Al  Al3  1  0.66449  0.99705  0.92524  1
 Al  Al4  1  0.99705  0.66449  0.57476  1
 Al  Al5  1  0.66562  0.66562  0.44770  1
 Al  Al6  1  0.66562  0.66562  0.05230  1
 Al  Al7  1  0.33438  0.33438  0.94770  1
 Al  Al8  1  0.12970  0.12970  0.25000  1
 Al  Al9  1  0.87030  0.87030  0.75000  1
 Al  Al10  1  0.34127  0.54836  0.25000  1
 Al  Al11  1  0.65873  0.45164  0.75000  1
 Al  Al12  1  0.54836  0.34127  0.25000  1
 Al  Al13  1  0.45164  0.65873  0.75000  1
 Al  Al14  1  0.99705  0.66449  0.92524  1
 Al  Al15  1  0.00295  0.33551  0.07476  1
 Al  Al16  1  0.33438  0.33438  0.55230  1
 Al  Al17  1  0.00295  0.33551  0.42524  1
 Al  Al18  1  0.33551  0.00295  0.42524  1
 Ce  Ce1  1  0.99690  0.67096  0.25000  1
 Ce  Ce2  1  0.32904  0.00310  0.75000  1
 Ce  Ce3  1  0.67096  0.99690  0.25000  1
 Ce  Ce4  1  0.00310  0.32904  0.75000  1
 Rh  Rh1  1  0.00000  0.00000  0.00000  1
 Rh  Rh2  1  0.67125  0.32875  0.00000  1
 Rh  Rh3  1  0.32875  0.67125  0.00000  1
 Rh  Rh4  1  0.32875  0.67125  0.50000  1
 Rh  Rh5  1  0.67125  0.32875  0.50000  1
 Rh  Rh6  1  0.00000  0.00000  0.50000  1
