CIF file written using JARVIS-Tools package.
data_Ba2YMn3O7
_symmetry_space_group_name_H-M  'Fmmm'
_cell_length_a       5.5504
_cell_length_b       12.1893
_cell_length_c       5.55039
_cell_angle_alpha    76.7402
_cell_angle_beta     89.577
_cell_angle_gamma    76.7402

_symmetry_Int_Tables_number  69
_chemical_formula_structural  Ba2YMn3O7
_chemical_formula_sum  Ba4Y2Mn6O4
_cell_volume  355.3523748972441
_cell_formula_units_Z  2
loop_
  _symmetry_equiv_pos_site_id
 _symmetry_equiv_pos_as_xyz
 1  'x, y, z'
loop_
 _atom_site_type_symbol
 _atom_site_label
 _atom_site_symmetry_multiplicity
 _atom_site_fract_x
 _atom_site_fract_y
 _atom_site_fract_z
 _atom_site_fract_occupancy
 Ba  Ba1  1  0.58746  0.82508  0.08747  1
 Ba  Ba2  1  0.08746  0.82508  0.58746  1
 Ba  Ba3  1  0.91254  0.17491  0.41254  1
 Ba  Ba4  1  0.41254  0.17491  0.91254  1
 Mn  Mn1  1  0.00000  -0.00000  0.00000  1
 Mn  Mn2  1  0.50000  -0.00000  0.50000  1
 Mn  Mn3  1  0.82694  0.34611  0.82694  1
 Mn  Mn4  1  0.17305  0.65391  0.17305  1
 Mn  Mn5  1  0.32552  0.34894  0.32552  1
 Mn  Mn6  1  0.67448  0.65105  0.67448  1
 O  O1  1  0.75013  -0.00000  0.24987  1
 O  O2  1  0.24987  -0.00000  0.75013  1
 O  O3  1  0.91698  0.16604  0.91698  1
 O  O4  1  0.93733  0.62426  0.93733  1
 O  O5  1  0.43843  0.62426  0.43843  1
 O  O6  1  0.56156  0.37575  0.56156  1
 O  O7  1  0.93815  0.62296  0.43891  1
 O  O8  1  0.58403  0.83196  0.58403  1
 O  O9  1  0.56109  0.37705  0.06184  1
 O  O10  1  0.06185  0.37705  0.56109  1
 O  O11  1  0.08302  0.83395  0.08302  1
 O  O12  1  0.06267  0.37576  0.06267  1
 O  O13  1  0.43891  0.62296  0.93815  1
 O  O14  1  0.41597  0.16803  0.41597  1
 Y  Y1  1  0.25000  0.50000  0.75000  1
 Y  Y2  1  0.75000  0.50000  0.25000  1
