CIF file written using JARVIS-Tools package.
data_CrSbP2O8
_symmetry_space_group_name_H-M  'P2_1/m'
_cell_length_a       10.9338
_cell_length_b       5.77193
_cell_length_c       4.82861
_cell_angle_alpha    89.9999
_cell_angle_beta     98.5078
_cell_angle_gamma    90

_symmetry_Int_Tables_number  11
_chemical_formula_structural  CrSbP2O8
_chemical_formula_sum  Cr2Sb2P4O6
_cell_volume  301.3750224946427
_cell_formula_units_Z  2
loop_
  _symmetry_equiv_pos_site_id
 _symmetry_equiv_pos_as_xyz
 1  'x, y, z'
loop_
 _atom_site_type_symbol
 _atom_site_label
 _atom_site_symmetry_multiplicity
 _atom_site_fract_x
 _atom_site_fract_y
 _atom_site_fract_z
 _atom_site_fract_occupancy
 Cr  Cr1  1  0.19869  0.75000  0.43471  1
 Cr  Cr2  1  0.80131  0.25000  0.56529  1
 O  O1  1  0.07473  0.75000  0.68564  1
 O  O2  1  0.10533  0.25000  0.69780  1
 O  O3  1  0.12394  0.03555  0.24236  1
 O  O4  1  0.89467  0.75000  0.30220  1
 O  O5  1  0.30989  0.95716  0.71175  1
 O  O6  1  0.30989  0.54285  0.71175  1
 O  O7  1  0.12394  0.46445  0.24236  1
 O  O8  1  0.48622  0.25000  0.09043  1
 O  O9  1  0.51378  0.75000  0.90957  1
 O  O10  1  0.66955  0.25000  0.81494  1
 O  O11  1  0.69011  0.04284  0.28825  1
 O  O12  1  0.69011  0.45715  0.28825  1
 O  O13  1  0.87606  0.53555  0.75764  1
 O  O14  1  0.87606  0.96445  0.75764  1
 O  O15  1  0.33045  0.75000  0.18506  1
 O  O16  1  0.92527  0.25000  0.31436  1
 P  P1  1  0.93372  0.75000  0.62249  1
 P  P2  1  0.62298  0.25000  0.09919  1
 P  P3  1  0.37702  0.75000  0.90081  1
 P  P4  1  0.06628  0.25000  0.37751  1
 Sb  Sb1  1  0.73439  0.75000  0.02108  1
 Sb  Sb2  1  0.26561  0.25000  0.97892  1
