CIF file written using JARVIS-Tools package.
data_ZrMnNi
_symmetry_space_group_name_H-M  'Amm2'
_cell_length_a       4.98262
_cell_length_b       4.98262
_cell_length_c       7.97052
_cell_angle_alpha    90
_cell_angle_beta     90
_cell_angle_gamma    121.67

_symmetry_Int_Tables_number  38
_chemical_formula_structural  ZrMnNi
_chemical_formula_sum  Zr4Mn4Ni4
_cell_volume  168.41296622392582
_cell_formula_units_Z  4
loop_
  _symmetry_equiv_pos_site_id
 _symmetry_equiv_pos_as_xyz
 1  'x, y, z'
loop_
 _atom_site_type_symbol
 _atom_site_label
 _atom_site_symmetry_multiplicity
 _atom_site_fract_x
 _atom_site_fract_y
 _atom_site_fract_z
 _atom_site_fract_occupancy
 Mn  Mn1  1  0.00654  0.99346  0.24117  1
 Mn  Mn2  1  0.00654  0.99346  0.75883  1
 Mn  Mn3  1  0.82435  0.66885  0.00000  1
 Mn  Mn4  1  0.33115  0.17565  0.00000  1
 Ni  Ni1  1  0.82403  0.17597  0.00000  1
 Ni  Ni2  1  0.16866  0.32970  0.50000  1
 Ni  Ni3  1  0.67030  0.83134  0.50000  1
 Ni  Ni4  1  0.16761  0.83239  0.50000  1
 Zr  Zr1  1  0.33464  0.66536  0.18985  1
 Zr  Zr2  1  0.66506  0.33494  0.31058  1
 Zr  Zr3  1  0.66506  0.33494  0.68942  1
 Zr  Zr4  1  0.33464  0.66536  0.81015  1
