CIF file written using JARVIS-Tools package.
data_YbCuPbS3
_symmetry_space_group_name_H-M  'Cmcm'
_cell_length_a       6.86195
_cell_length_b       6.86195
_cell_length_c       10.3224
_cell_angle_alpha    90
_cell_angle_beta     90
_cell_angle_gamma    147.492

_symmetry_Int_Tables_number  63
_chemical_formula_structural  YbCuPbS3
_chemical_formula_sum  Yb2Cu2Pb2S6
_cell_volume  261.20743591741564
_cell_formula_units_Z  2
loop_
  _symmetry_equiv_pos_site_id
 _symmetry_equiv_pos_as_xyz
 1  'x, y, z'
loop_
 _atom_site_type_symbol
 _atom_site_label
 _atom_site_symmetry_multiplicity
 _atom_site_fract_x
 _atom_site_fract_y
 _atom_site_fract_z
 _atom_site_fract_occupancy
 Cu  Cu1  1  0.47371  0.52629  0.24466  1
 Cu  Cu2  1  0.52629  0.47371  0.74466  1
 Pb  Pb1  1  0.75576  0.24424  0.24448  1
 Pb  Pb2  1  0.24424  0.75576  0.74448  1
 S  S1  1  0.07379  0.92621  0.24462  1
 S  S2  1  0.92621  0.07379  0.74462  1
 S  S3  1  0.35976  0.64024  0.41733  1
 S  S4  1  0.64014  0.35986  0.57182  1
 S  S5  1  0.35986  0.64014  0.07182  1
 S  S6  1  0.64024  0.35976  0.91733  1
 Yb  Yb1  1  -0.00006  0.00006  0.49460  1
 Yb  Yb2  1  0.00006  -0.00006  0.99460  1
