CIF file written using JARVIS-Tools package.
data_LaMgFeNiO6
_symmetry_space_group_name_H-M  'Pc'
_cell_length_a       5.23802
_cell_length_b       7.47507
_cell_length_c       5.37638
_cell_angle_alpha    89.9972
_cell_angle_beta     89.9997
_cell_angle_gamma    89.936

_symmetry_Int_Tables_number  7
_chemical_formula_structural  LaMgFeNiO6
_chemical_formula_sum  La2Mg2Fe2Ni2O2
_cell_volume  210.50970788269834
_cell_formula_units_Z  2
loop_
  _symmetry_equiv_pos_site_id
 _symmetry_equiv_pos_as_xyz
 1  'x, y, z'
loop_
 _atom_site_type_symbol
 _atom_site_label
 _atom_site_symmetry_multiplicity
 _atom_site_fract_x
 _atom_site_fract_y
 _atom_site_fract_z
 _atom_site_fract_occupancy
 Fe  Fe1  1  0.50220  0.50097  0.99705  1
 Fe  Fe2  1  0.00222  0.00097  0.50295  1
 La  La1  1  0.99423  0.24987  0.03207  1
 La  La2  1  0.49424  0.74984  0.46792  1
 Mg  Mg1  1  0.52891  0.24846  0.55674  1
 Mg  Mg2  1  0.02893  0.74855  0.94328  1
 Ni  Ni1  1  0.00193  0.49886  0.49872  1
 Ni  Ni2  1  0.50195  0.99886  0.00129  1
 O  O1  1  0.62812  0.74449  0.01372  1
 O  O2  1  0.26088  0.94991  0.73875  1
 O  O3  1  0.18759  0.94327  0.20706  1
 O  O4  1  0.68759  0.44326  0.29289  1
 O  O5  1  0.12810  0.24451  0.48627  1
 O  O6  1  0.26661  0.55496  0.74380  1
 O  O7  1  0.93131  0.75470  0.54513  1
 O  O8  1  0.43130  0.25469  0.95487  1
 O  O9  1  0.19821  0.55453  0.19806  1
 O  O10  1  0.76674  0.05491  0.75631  1
 O  O11  1  0.69821  0.05451  0.30200  1
 O  O12  1  0.76074  0.44986  0.76113  1
