CIF file written using JARVIS-Tools package.
data_NdCoO3
_symmetry_space_group_name_H-M  'Pnma'
_cell_length_a       5.36381
_cell_length_b       5.40632
_cell_length_c       7.59095
_cell_angle_alpha    90
_cell_angle_beta     90
_cell_angle_gamma    90

_symmetry_Int_Tables_number  62
_chemical_formula_structural  NdCoO3
_chemical_formula_sum  Nd4Co4O2
_cell_volume  220.12574909488558
_cell_formula_units_Z  4
loop_
  _symmetry_equiv_pos_site_id
 _symmetry_equiv_pos_as_xyz
 1  'x, y, z'
loop_
 _atom_site_type_symbol
 _atom_site_label
 _atom_site_symmetry_multiplicity
 _atom_site_fract_x
 _atom_site_fract_y
 _atom_site_fract_z
 _atom_site_fract_occupancy
 Co  Co1  1  0.50000  0.00000  0.50000  1
 Co  Co2  1  0.00000  0.50000  0.00000  1
 Co  Co3  1  0.00000  0.50000  0.50000  1
 Co  Co4  1  0.50000  0.00000  0.00000  1
 Nd  Nd1  1  0.00922  0.95357  0.75000  1
 Nd  Nd2  1  0.49078  0.45357  0.75000  1
 Nd  Nd3  1  0.50922  0.54643  0.25000  1
 Nd  Nd4  1  0.99078  0.04643  0.25000  1
 O  O1  1  0.71041  0.28886  0.45984  1
 O  O2  1  0.57574  0.01002  0.75000  1
 O  O3  1  0.21041  0.21114  0.54016  1
 O  O4  1  0.28959  0.71114  0.95984  1
 O  O5  1  0.78959  0.78886  0.04016  1
 O  O6  1  0.07574  0.48998  0.25000  1
 O  O7  1  0.78959  0.78886  0.45984  1
 O  O8  1  0.71041  0.28886  0.04016  1
 O  O9  1  0.28959  0.71114  0.54016  1
 O  O10  1  0.42426  0.98998  0.25000  1
 O  O11  1  0.21041  0.21114  0.95984  1
 O  O12  1  0.92426  0.51002  0.75000  1
