CIF file written using JARVIS-Tools package.
data_VHO3
_symmetry_space_group_name_H-M  'P1'
_cell_length_a       5.13911
_cell_length_b       7.87626
_cell_length_c       8.4092
_cell_angle_alpha    100.227
_cell_angle_beta     90.2422
_cell_angle_gamma    80.4884

_symmetry_Int_Tables_number  1
_chemical_formula_structural  VHO3
_chemical_formula_sum  V6H6O8
_cell_volume  330.2547877932663
_cell_formula_units_Z  6
loop_
  _symmetry_equiv_pos_site_id
 _symmetry_equiv_pos_as_xyz
 1  'x, y, z'
loop_
 _atom_site_type_symbol
 _atom_site_label
 _atom_site_symmetry_multiplicity
 _atom_site_fract_x
 _atom_site_fract_y
 _atom_site_fract_z
 _atom_site_fract_occupancy
 H  H1  1  0.83291  0.56869  0.22107  1
 H  H2  1  0.15428  0.46277  0.21935  1
 H  H3  1  -0.05653  0.36314  0.11585  1
 H  H4  1  0.88985  0.60610  0.62490  1
 H  H5  1  -0.02171  0.41654  0.68263  1
 H  H6  1  0.20201  0.49727  0.60085  1
 O  O1  1  0.35069  0.01219  0.61070  1
 O  O2  1  0.90759  0.23337  0.66628  1
 O  O3  1  0.90819  0.22296  0.96641  1
 O  O4  1  0.45035  0.34126  0.51411  1
 O  O5  1  0.16727  0.77506  0.38950  1
 O  O6  1  0.71568  0.98647  0.10782  1
 O  O7  1  -0.03611  0.45141  0.21891  1
 O  O8  1  0.35614  0.00082  0.93388  1
 O  O9  1  0.71466  0.99409  0.43506  1
 O  O10  1  0.63651  0.73032  0.23315  1
 O  O11  1  0.13515  0.08838  0.28553  1
 O  O12  1  0.04107  0.53332  0.67447  1
 O  O13  1  0.62312  0.66970  0.54336  1
 O  O14  1  0.45839  0.33718  0.14474  1
 O  O15  1  0.16572  0.77011  0.09098  1
 O  O16  1  0.61344  0.64830  0.90402  1
 O  O17  1  0.44657  0.25868  0.81594  1
 O  O18  1  0.93032  0.91694  0.75528  1
 V  V1  1  0.11011  0.06844  0.78546  1
 V  V2  1  0.96708  0.93056  0.25977  1
 V  V3  1  0.48559  0.80470  0.04535  1
 V  V4  1  0.58802  0.18716  0.60725  1
 V  V5  1  0.58331  0.18228  0.99809  1
 V  V6  1  0.48487  0.81615  0.44129  1
