CIF file written using JARVIS-Tools package.
data_V4HgO10
_symmetry_space_group_name_H-M  'C2/m'
_cell_length_a       11.3273
_cell_length_b       11.3273
_cell_length_c       9.66091
_cell_angle_alpha    88.9734
_cell_angle_beta     88.9735
_cell_angle_gamma    18.4795

_symmetry_Int_Tables_number  12
_chemical_formula_structural  V4HgO10
_chemical_formula_sum  V8Hg2O20
_cell_volume  392.8325857189487
_cell_formula_units_Z  2
loop_
  _symmetry_equiv_pos_site_id
 _symmetry_equiv_pos_as_xyz
 1  'x, y, z'
loop_
 _atom_site_type_symbol
 _atom_site_label
 _atom_site_symmetry_multiplicity
 _atom_site_fract_x
 _atom_site_fract_y
 _atom_site_fract_z
 _atom_site_fract_occupancy
 Hg  Hg1  1  0.51839  0.51839  0.37271  1
 Hg  Hg2  1  0.48161  0.48161  0.62729  1
 O  O1  1  0.62674  0.62674  0.85214  1
 O  O2  1  0.81917  0.81917  0.33541  1
 O  O3  1  0.22954  0.22954  0.28118  1
 O  O4  1  0.29030  0.29030  0.54044  1
 O  O5  1  0.34008  0.34008  0.83536  1
 O  O6  1  0.53862  0.53862  0.15082  1
 O  O7  1  0.18083  0.18083  0.66459  1
 O  O8  1  0.46138  0.46138  0.84918  1
 O  O9  1  0.09827  0.09827  -0.00247  1
 O  O10  1  0.65992  0.65992  0.16464  1
 O  O11  1  0.88302  0.88302  0.57730  1
 O  O12  1  0.77971  0.77971  0.08758  1
 O  O13  1  0.93969  0.93969  0.29184  1
 O  O14  1  0.90173  0.90173  0.00247  1
 O  O15  1  0.37326  0.37326  0.14786  1
 O  O16  1  0.77046  0.77046  0.71882  1
 O  O17  1  0.70970  0.70970  0.45956  1
 O  O18  1  0.11698  0.11698  0.42270  1
 O  O19  1  0.22029  0.22029  0.91242  1
 O  O20  1  0.06031  0.06031  0.70816  1
 V  V1  1  0.87925  0.87925  0.20053  1
 V  V2  1  0.12075  0.12075  0.79947  1
 V  V3  1  0.74114  0.74114  0.23109  1
 V  V4  1  0.81308  0.81308  0.53468  1
 V  V5  1  0.39775  0.39775  0.94473  1
 V  V6  1  0.25886  0.25886  0.76891  1
 V  V7  1  0.60225  0.60225  0.05527  1
 V  V8  1  0.18692  0.18692  0.46532  1
