CIF file written using JARVIS-Tools package.
data_Y3Sn4BiO14
_symmetry_space_group_name_H-M  'R-3m'
_cell_length_a       7.43034
_cell_length_b       7.43034
_cell_length_c       7.43034
_cell_angle_alpha    60.2256
_cell_angle_beta     60.2256
_cell_angle_gamma    60.2256

_symmetry_Int_Tables_number  166
_chemical_formula_structural  Y3Sn4BiO14
_chemical_formula_sum  Y3Sn4BiO4
_cell_volume  291.55682886056474
_cell_formula_units_Z  1
loop_
  _symmetry_equiv_pos_site_id
 _symmetry_equiv_pos_as_xyz
 1  'x, y, z'
loop_
 _atom_site_type_symbol
 _atom_site_label
 _atom_site_symmetry_multiplicity
 _atom_site_fract_x
 _atom_site_fract_y
 _atom_site_fract_z
 _atom_site_fract_occupancy
 Bi  Bi1  1  0.50000  0.50000  0.50000  1
 O  O1  1  0.66247  0.08791  0.08791  1
 O  O2  1  0.37013  0.37013  0.37013  1
 O  O3  1  0.62987  0.62987  0.62987  1
 O  O4  1  0.08791  0.66247  0.08791  1
 O  O5  1  0.33753  0.91209  0.91209  1
 O  O6  1  0.33738  0.33738  0.91855  1
 O  O7  1  0.91855  0.33738  0.33738  1
 O  O8  1  0.91209  0.33753  0.91209  1
 O  O9  1  0.33738  0.91855  0.33738  1
 O  O10  1  0.08145  0.66262  0.66262  1
 O  O11  1  0.66262  0.08145  0.66262  1
 O  O12  1  0.66262  0.66262  0.08145  1
 O  O13  1  0.08791  0.08791  0.66247  1
 O  O14  1  0.91209  0.91209  0.33753  1
 Sn  Sn1  1  -0.00000  0.50000  -0.00000  1
 Sn  Sn2  1  -0.00000  0.00000  0.50000  1
 Sn  Sn3  1  0.50000  0.00000  0.00000  1
 Sn  Sn4  1  0.00000  0.00000  0.00000  1
 Y  Y1  1  0.50000  0.00000  0.50000  1
 Y  Y2  1  0.50000  0.50000  0.00000  1
 Y  Y3  1  -0.00000  0.50000  0.50000  1
