CIF file written using JARVIS-Tools package.
data_Y4US7
_symmetry_space_group_name_H-M  'Cm'
_cell_length_a       6.7071
_cell_length_b       6.70709
_cell_length_c       11.6351
_cell_angle_alpha    75.7808
_cell_angle_beta     75.7808
_cell_angle_gamma    32.8886

_symmetry_Int_Tables_number  8
_chemical_formula_structural  Y4US7
_chemical_formula_sum  Y4US7
_cell_volume  274.7348572164961
_cell_formula_units_Z  1
loop_
  _symmetry_equiv_pos_site_id
 _symmetry_equiv_pos_as_xyz
 1  'x, y, z'
loop_
 _atom_site_type_symbol
 _atom_site_label
 _atom_site_symmetry_multiplicity
 _atom_site_fract_x
 _atom_site_fract_y
 _atom_site_fract_z
 _atom_site_fract_occupancy
 S  S1  1  0.04013  0.04013  0.21443  1
 S  S2  1  0.95964  0.95964  0.78422  1
 S  S3  1  0.74008  0.74008  0.65195  1
 S  S4  1  0.25659  0.25659  0.34936  1
 S  S5  1  0.50004  0.50004  0.50290  1
 S  S6  1  0.34166  0.34166  0.05048  1
 S  S7  1  0.65937  0.65937  0.94946  1
 U  U1  1  0.88457  0.88457  0.42325  1
 Y  Y1  1  0.69981  0.69981  0.18601  1
 Y  Y2  1  0.30192  0.30192  0.81157  1
 Y  Y3  1  0.11631  0.11631  0.57821  1
 Y  Y4  1  0.99987  0.99987  0.99815  1
