CIF file written using JARVIS-Tools package.
data_Li2CrSi2O6
_symmetry_space_group_name_H-M  'C2/c'
_cell_length_a       5.76946
_cell_length_b       5.76816
_cell_length_c       8.90982
_cell_angle_alpha    89.5966
_cell_angle_beta     90.4531
_cell_angle_gamma    62.4387

_symmetry_Int_Tables_number  15
_chemical_formula_structural  Li2CrSi2O6
_chemical_formula_sum  Li4Cr2Si4O2
_cell_volume  262.83501258168974
_cell_formula_units_Z  2
loop_
  _symmetry_equiv_pos_site_id
 _symmetry_equiv_pos_as_xyz
 1  'x, y, z'
loop_
 _atom_site_type_symbol
 _atom_site_label
 _atom_site_symmetry_multiplicity
 _atom_site_fract_x
 _atom_site_fract_y
 _atom_site_fract_z
 _atom_site_fract_occupancy
 Cr  Cr1  1  0.23902  0.23910  0.74998  1
 Cr  Cr2  1  0.76097  0.76091  0.25002  1
 Li  Li1  1  0.60653  0.69073  0.88544  1
 Li  Li2  1  0.30917  0.39311  0.38528  1
 Li  Li3  1  0.69079  0.60685  0.61471  1
 Li  Li4  1  0.39351  0.30931  0.11455  1
 O  O1  1  0.84705  0.35112  0.77629  1
 O  O2  1  0.15294  0.64888  0.22370  1
 O  O3  1  0.23643  0.49247  0.59128  1
 O  O4  1  0.50734  0.76362  0.09139  1
 O  O5  1  0.35107  0.84704  0.72376  1
 O  O6  1  -0.00004  -0.00000  0.50001  1
 O  O7  1  0.13155  0.13160  0.25011  1
 O  O8  1  0.76358  0.50753  0.40872  1
 O  O9  1  0.49267  0.23637  0.90860  1
 O  O10  1  0.86849  0.86836  0.74992  1
 O  O11  1  0.00000  0.00004  0.00001  1
 O  O12  1  0.64893  0.15297  0.27622  1
 Si  Si1  1  0.87312  0.20615  0.36037  1
 Si  Si2  1  0.79395  0.12684  0.86029  1
 Si  Si3  1  0.20605  0.87317  0.13971  1
 Si  Si4  1  0.12688  0.79384  0.63963  1
