CIF file written using JARVIS-Tools package.
data_Fe4OF7
_symmetry_space_group_name_H-M  'Cmc2_1'
_cell_length_a       7.57094
_cell_length_b       7.57094
_cell_length_c       6.75321
_cell_angle_alpha    90
_cell_angle_beta     90
_cell_angle_gamma    132.008

_symmetry_Int_Tables_number  36
_chemical_formula_structural  Fe4OF7
_chemical_formula_sum  Fe8O2F4
_cell_volume  287.6248247277146
_cell_formula_units_Z  2
loop_
  _symmetry_equiv_pos_site_id
 _symmetry_equiv_pos_as_xyz
 1  'x, y, z'
loop_
 _atom_site_type_symbol
 _atom_site_label
 _atom_site_symmetry_multiplicity
 _atom_site_fract_x
 _atom_site_fract_y
 _atom_site_fract_z
 _atom_site_fract_occupancy
 F  F1  1  0.21811  0.26523  0.50223  1
 F  F2  1  0.78189  0.73477  0.00223  1
 F  F3  1  0.52694  0.98073  0.50146  1
 F  F4  1  0.12655  0.87345  0.70351  1
 F  F5  1  0.12625  0.87375  0.31013  1
 F  F6  1  0.87375  0.12625  0.81013  1
 F  F7  1  0.26523  0.21811  0.00223  1
 F  F8  1  0.62424  0.37576  0.27926  1
 F  F9  1  0.47306  0.01927  0.00146  1
 F  F10  1  0.98073  0.52694  0.00146  1
 F  F11  1  0.73477  0.78189  0.50223  1
 F  F12  1  0.87345  0.12655  0.20351  1
 F  F13  1  0.01927  0.47306  0.50146  1
 F  F14  1  0.37576  0.62424  0.77926  1
 Fe  Fe1  1  0.37515  0.62485  0.47664  1
 Fe  Fe2  1  0.87425  0.12575  0.50573  1
 Fe  Fe3  1  0.14519  0.39422  0.00824  1
 Fe  Fe4  1  0.60578  0.85481  0.00824  1
 Fe  Fe5  1  0.85481  0.60578  0.50824  1
 Fe  Fe6  1  0.39422  0.14519  0.50824  1
 Fe  Fe7  1  0.62485  0.37515  0.97664  1
 Fe  Fe8  1  0.12575  0.87425  0.00573  1
 O  O1  1  0.37701  0.62299  0.20087  1
 O  O2  1  0.62299  0.37701  0.70087  1
