CIF file written using JARVIS-Tools package.
data_Y4Ti2Nb2O15
_symmetry_space_group_name_H-M  'Imm2'
_cell_length_a       7.2638
_cell_length_b       7.26379
_cell_length_c       7.2638
_cell_angle_alpha    120.809
_cell_angle_beta     119.361
_cell_angle_gamma    89.8575

_symmetry_Int_Tables_number  44
_chemical_formula_structural  Y4Ti2Nb2O15
_chemical_formula_sum  Y4Ti2Nb2O5
_cell_volume  270.6007058196647
_cell_formula_units_Z  1
loop_
  _symmetry_equiv_pos_site_id
 _symmetry_equiv_pos_as_xyz
 1  'x, y, z'
loop_
 _atom_site_type_symbol
 _atom_site_label
 _atom_site_symmetry_multiplicity
 _atom_site_fract_x
 _atom_site_fract_y
 _atom_site_fract_z
 _atom_site_fract_occupancy
 Nb  Nb1  1  0.76058  0.99809  0.76249  1
 Nb  Nb2  1  0.23560  0.99809  0.23751  1
 O  O1  1  0.81898  0.31898  0.50000  1
 O  O2  1  0.12329  0.62329  0.50000  1
 O  O3  1  0.38042  0.38042  0.00000  1
 O  O4  1  0.11545  0.11545  0.00000  1
 O  O5  1  0.81728  0.32303  0.90229  1
 O  O6  1  0.09755  0.63595  0.99890  1
 O  O7  1  0.63704  0.09864  0.00110  1
 O  O8  1  0.65319  0.65319  0.00000  1
 O  O9  1  0.63704  0.63595  0.53840  1
 O  O10  1  0.42113  0.92113  0.50000  1
 O  O11  1  0.88618  0.88618  0.00000  1
 O  O12  1  0.42074  0.32303  0.50575  1
 O  O13  1  0.81728  0.91499  0.49425  1
 O  O14  1  0.42074  0.91499  0.09771  1
 O  O15  1  0.09755  0.09864  0.46160  1
 Ti  Ti1  1  0.76191  0.52587  0.76396  1
 Ti  Ti2  1  0.76191  0.99795  0.23604  1
 Y  Y1  1  0.74373  0.50037  0.24337  1
 Y  Y2  1  0.25700  0.50037  0.75663  1
 Y  Y3  1  0.25520  0.00692  0.75172  1
 Y  Y4  1  0.25520  0.50349  0.24828  1
