CIF file written using JARVIS-Tools package.
data_Y4Co16B3C
_symmetry_space_group_name_H-M  'P-6m2'
_cell_length_a       4.94131
_cell_length_b       4.94131
_cell_length_c       13.5994
_cell_angle_alpha    90
_cell_angle_beta     90
_cell_angle_gamma    120

_symmetry_Int_Tables_number  187
_chemical_formula_structural  Y4Co16B3C
_chemical_formula_sum  Y4Co6B3C
_cell_volume  287.5643407266715
_cell_formula_units_Z  1
loop_
  _symmetry_equiv_pos_site_id
 _symmetry_equiv_pos_as_xyz
 1  'x, y, z'
loop_
 _atom_site_type_symbol
 _atom_site_label
 _atom_site_symmetry_multiplicity
 _atom_site_fract_x
 _atom_site_fract_y
 _atom_site_fract_z
 _atom_site_fract_occupancy
 B  B1  1  0.00000  0.00000  0.50000  1
 B  B2  1  0.66667  0.33333  0.00000  1
 B  B3  1  0.00000  0.00000  0.00000  1
 C  C1  1  0.66667  0.33333  0.50000  1
 Co  Co1  1  0.33722  0.16861  0.60360  1
 Co  Co2  1  0.33302  0.16651  0.10896  1
 Co  Co3  1  0.83139  0.16861  0.60360  1
 Co  Co4  1  0.83349  0.16651  0.10896  1
 Co  Co5  1  0.83139  0.66278  0.60360  1
 Co  Co6  1  0.83349  0.66698  0.10896  1
 Co  Co7  1  0.33722  0.16861  0.39640  1
 Co  Co8  1  0.33302  0.16651  0.89104  1
 Co  Co9  1  0.83139  0.16861  0.39640  1
 Co  Co10  1  0.83139  0.66278  0.39640  1
 Co  Co11  1  0.83349  0.66698  0.89104  1
 Co  Co12  1  0.66667  0.33333  0.74936  1
 Co  Co13  1  0.66667  0.33333  0.25064  1
 Co  Co14  1  0.00000  0.00000  0.74763  1
 Co  Co15  1  0.00000  0.00000  0.25237  1
 Co  Co16  1  0.83349  0.16651  0.89104  1
 Y  Y1  1  0.33333  0.66667  0.00000  1
 Y  Y2  1  0.33333  0.66667  0.50000  1
 Y  Y3  1  0.33333  0.66667  0.25168  1
 Y  Y4  1  0.33333  0.66667  0.74832  1
