CIF file written using JARVIS-Tools package.
data_Li2MgMn3O8
_symmetry_space_group_name_H-M  'R-3m'
_cell_length_a       5.87086
_cell_length_b       5.87086
_cell_length_c       5.87084
_cell_angle_alpha    58.6125
_cell_angle_beta     58.6126
_cell_angle_gamma    58.6125

_symmetry_Int_Tables_number  166
_chemical_formula_structural  Li2MgMn3O8
_chemical_formula_sum  Li2MgMn3O8
_cell_volume  138.544341778221
_cell_formula_units_Z  1
loop_
  _symmetry_equiv_pos_site_id
 _symmetry_equiv_pos_as_xyz
 1  'x, y, z'
loop_
 _atom_site_type_symbol
 _atom_site_label
 _atom_site_symmetry_multiplicity
 _atom_site_fract_x
 _atom_site_fract_y
 _atom_site_fract_z
 _atom_site_fract_occupancy
 Li  Li1  1  0.11689  0.11689  0.11689  1
 Li  Li2  1  0.88311  0.88311  0.88311  1
 Mg  Mg1  1  0.50000  0.50000  0.50000  1
 Mn  Mn1  1  0.50000  0.50000  0.00000  1
 Mn  Mn2  1  0.50000  0.00000  0.50000  1
 Mn  Mn3  1  -0.00000  0.50000  0.50000  1
 O  O1  1  0.26261  0.26261  0.26261  1
 O  O2  1  0.71034  0.25275  0.25274  1
 O  O3  1  0.25274  0.71034  0.25274  1
 O  O4  1  0.25274  0.25274  0.71034  1
 O  O5  1  0.74726  0.74726  0.28966  1
 O  O6  1  0.74725  0.28966  0.74726  1
 O  O7  1  0.28966  0.74726  0.74726  1
 O  O8  1  0.73739  0.73739  0.73739  1
