CIF file written using JARVIS-Tools package.
data_V3Cr3B8
_symmetry_space_group_name_H-M  'Pmm2'
_cell_length_a       2.95556
_cell_length_b       2.99158
_cell_length_c       13.0616
_cell_angle_alpha    90
_cell_angle_beta     90
_cell_angle_gamma    90

_symmetry_Int_Tables_number  25
_chemical_formula_structural  V3Cr3B8
_chemical_formula_sum  V3Cr3B8
_cell_volume  115.48760607850748
_cell_formula_units_Z  1
loop_
  _symmetry_equiv_pos_site_id
 _symmetry_equiv_pos_as_xyz
 1  'x, y, z'
loop_
 _atom_site_type_symbol
 _atom_site_label
 _atom_site_symmetry_multiplicity
 _atom_site_fract_x
 _atom_site_fract_y
 _atom_site_fract_z
 _atom_site_fract_occupancy
 B  B1  1  0.50000  0.00000  0.43201  1
 B  B2  1  0.00000  0.50000  0.93519  1
 B  B3  1  0.00000  0.50000  0.06841  1
 B  B4  1  0.50000  0.00000  0.56527  1
 B  B5  1  0.00000  0.00000  0.35961  1
 B  B6  1  0.50000  0.50000  0.86341  1
 B  B7  1  0.50000  0.50000  0.14080  1
 B  B8  1  0.00000  0.00000  0.63645  1
 Cr  Cr1  1  0.00000  0.00000  0.18710  1
 Cr  Cr2  1  0.50000  0.50000  0.68777  1
 Cr  Cr3  1  0.50000  0.50000  0.31290  1
 V  V1  1  0.00000  0.00000  0.81070  1
 V  V2  1  0.50000  0.00000  0.00175  1
 V  V3  1  0.00000  0.50000  0.49864  1
