CIF file written using JARVIS-Tools package.
data_Li2MnPCO7
_symmetry_space_group_name_H-M  'P1'
_cell_length_a       4.93481
_cell_length_b       6.10413
_cell_length_c       8.61218
_cell_angle_alpha    100.473
_cell_angle_beta     97.4308
_cell_angle_gamma    94.6504

_symmetry_Int_Tables_number  1
_chemical_formula_structural  Li2MnPCO7
_chemical_formula_sum  Li4Mn2P2C2O4
_cell_volume  251.4987747127154
_cell_formula_units_Z  2
loop_
  _symmetry_equiv_pos_site_id
 _symmetry_equiv_pos_as_xyz
 1  'x, y, z'
loop_
 _atom_site_type_symbol
 _atom_site_label
 _atom_site_symmetry_multiplicity
 _atom_site_fract_x
 _atom_site_fract_y
 _atom_site_fract_z
 _atom_site_fract_occupancy
 C  C1  1  0.22040  0.25175  0.04087  1
 C  C2  1  0.82268  0.74116  0.96740  1
 Li  Li1  1  0.58080  0.97294  0.22027  1
 Li  Li2  1  0.71837  0.52003  0.23387  1
 Li  Li3  1  0.27865  0.53577  0.81181  1
 Li  Li4  1  0.64503  0.12583  0.88878  1
 Mn  Mn1  1  0.16900  0.23059  0.34108  1
 Mn  Mn2  1  0.85516  0.78576  0.66373  1
 O  O1  1  -0.03378  0.22229  0.05496  1
 O  O2  1  0.32176  0.27559  0.91622  1
 O  O3  1  0.40327  0.25662  0.17514  1
 O  O4  1  0.24151  0.92428  0.31127  1
 O  O5  1  0.09254  0.53362  0.34046  1
 O  O6  1  0.71497  0.72996  0.09313  1
 O  O7  1  0.58511  0.70647  0.43701  1
 O  O8  1  0.92793  0.47955  0.65506  1
 O  O9  1  0.19597  0.84214  0.58692  1
 O  O10  1  0.78319  0.09388  0.68959  1
 O  O11  1  0.81984  0.16634  0.41066  1
 O  O12  1  0.64267  0.76913  0.83833  1
 O  O13  1  0.43563  0.31061  0.55677  1
 O  O14  1  0.07177  0.73491  0.95035  1
 P  P1  1  0.73588  0.26329  0.57660  1
 P  P2  1  0.28133  0.75129  0.42350  1
