CIF file written using JARVIS-Tools package.
data_B2H
_symmetry_space_group_name_H-M  'Immm'
_cell_length_a       4.01025
_cell_length_b       5.68316
_cell_length_c       1.75936
_cell_angle_alpha    98.8875
_cell_angle_beta     102.68
_cell_angle_gamma    144.621

_symmetry_Int_Tables_number  71
_chemical_formula_structural  B2H
_chemical_formula_sum  B2H
_cell_volume  18.28146835624722
_cell_formula_units_Z  1
loop_
  _symmetry_equiv_pos_site_id
 _symmetry_equiv_pos_as_xyz
 1  'x, y, z'
loop_
 _atom_site_type_symbol
 _atom_site_label
 _atom_site_symmetry_multiplicity
 _atom_site_fract_x
 _atom_site_fract_y
 _atom_site_fract_z
 _atom_site_fract_occupancy
 B  B1  1  0.58443  0.32749  0.18221  1
 B  B2  1  0.41671  0.93806  0.40365  1
 H  H1  1  0.00062  0.13280  0.79296  1
