CIF file written using JARVIS-Tools package.
data_Li2CrP2O7
_symmetry_space_group_name_H-M  'P2_1'
_cell_length_a       5.30224
_cell_length_b       7.03037
_cell_length_c       8.45503
_cell_angle_alpha    90
_cell_angle_beta     90.0002
_cell_angle_gamma    110.062

_symmetry_Int_Tables_number  4
_chemical_formula_structural  Li2CrP2O7
_chemical_formula_sum  Li4Cr2P4O4
_cell_volume  296.051657078701
_cell_formula_units_Z  2
loop_
  _symmetry_equiv_pos_site_id
 _symmetry_equiv_pos_as_xyz
 1  'x, y, z'
loop_
 _atom_site_type_symbol
 _atom_site_label
 _atom_site_symmetry_multiplicity
 _atom_site_fract_x
 _atom_site_fract_y
 _atom_site_fract_z
 _atom_site_fract_occupancy
 Cr  Cr1  1  0.45787  0.26703  0.51056  1
 Cr  Cr2  1  0.54213  0.73297  0.01056  1
 Li  Li1  1  0.24179  0.90162  0.82857  1
 Li  Li2  1  0.75821  0.09838  0.32857  1
 Li  Li3  1  0.41491  0.63511  0.65209  1
 Li  Li4  1  0.58509  0.36489  0.15209  1
 O  O1  1  0.89055  0.93434  0.19930  1
 O  O2  1  0.27500  0.47086  0.46719  1
 O  O3  1  0.62787  0.88017  0.79622  1
 O  O4  1  0.37213  0.11983  0.29622  1
 O  O5  1  0.29688  0.89571  0.05798  1
 O  O6  1  0.10945  0.06566  0.69930  1
 O  O7  1  0.16745  0.74956  0.33714  1
 O  O8  1  0.83255  0.25044  0.83714  1
 O  O9  1  0.36395  0.53040  0.17582  1
 O  O10  1  0.88356  0.38199  0.27733  1
 O  O11  1  0.70312  0.10429  0.55798  1
 O  O12  1  0.63605  0.46960  0.67582  1
 O  O13  1  0.11644  0.61801  0.77733  1
 O  O14  1  0.72500  0.52914  0.96719  1
 P  P1  1  0.83352  0.47906  0.81049  1
 P  P2  1  0.16648  0.52094  0.31048  1
 P  P3  1  0.82747  0.07002  0.71537  1
 P  P4  1  0.17252  0.92998  0.21537  1
