CIF file written using JARVIS-Tools package.
data_LiNbTe
_symmetry_space_group_name_H-M  'Pm'
_cell_length_a       7.92307
_cell_length_b       3.54424
_cell_length_c       2.80152
_cell_angle_alpha    90
_cell_angle_beta     90
_cell_angle_gamma    114.063

_symmetry_Int_Tables_number  6
_chemical_formula_structural  LiNbTe
_chemical_formula_sum  LiNbTe
_cell_volume  71.83383630154246
_cell_formula_units_Z  1
loop_
  _symmetry_equiv_pos_site_id
 _symmetry_equiv_pos_as_xyz
 1  'x, y, z'
loop_
 _atom_site_type_symbol
 _atom_site_label
 _atom_site_symmetry_multiplicity
 _atom_site_fract_x
 _atom_site_fract_y
 _atom_site_fract_z
 _atom_site_fract_occupancy
 Li  Li1  1  0.46362  -0.01723  0.00000  1
 Nb  Nb1  1  -0.21898  -0.22447  0.00000  1
 Te  Te1  1  0.07879  0.54724  0.00000  1
