CIF file written using JARVIS-Tools package.
data_TlBiF4
_symmetry_space_group_name_H-M  'Pmc2_1'
_cell_length_a       3.8182
_cell_length_b       6.50958
_cell_length_c       8.1241
_cell_angle_alpha    90
_cell_angle_beta     90
_cell_angle_gamma    90

_symmetry_Int_Tables_number  26
_chemical_formula_structural  TlBiF4
_chemical_formula_sum  Tl2Bi2F8
_cell_volume  201.92358044804914
_cell_formula_units_Z  2
loop_
  _symmetry_equiv_pos_site_id
 _symmetry_equiv_pos_as_xyz
 1  'x, y, z'
loop_
 _atom_site_type_symbol
 _atom_site_label
 _atom_site_symmetry_multiplicity
 _atom_site_fract_x
 _atom_site_fract_y
 _atom_site_fract_z
 _atom_site_fract_occupancy
 Bi  Bi1  1  0.50000  0.76279  0.13318  1
 Bi  Bi2  1  0.50000  0.26279  0.86682  1
 F  F1  1  0.00000  0.49754  0.91307  1
 F  F2  1  0.00000  0.99754  0.08693  1
 F  F3  1  0.50000  0.44011  0.63743  1
 F  F4  1  0.50000  0.94011  0.36257  1
 F  F5  1  0.00000  0.65525  0.27048  1
 F  F6  1  0.00000  0.15525  0.72952  1
 F  F7  1  0.50000  0.39255  0.14489  1
 F  F8  1  0.50000  0.89255  0.85511  1
 Tl  Tl1  1  0.00000  0.25176  0.37336  1
 Tl  Tl2  1  0.00000  0.75176  0.62664  1
