CIF file written using JARVIS-Tools package.
data_Li3Mn2VO6
_symmetry_space_group_name_H-M  'C2/m'
_cell_length_a       2.83856
_cell_length_b       13.5528
_cell_length_c       5.78921
_cell_angle_alpha    76.8926
_cell_angle_beta     90
_cell_angle_gamma    90

_symmetry_Int_Tables_number  12
_chemical_formula_structural  Li3Mn2VO6
_chemical_formula_sum  Li6Mn4V2O2
_cell_volume  216.9111496179293
_cell_formula_units_Z  2
loop_
  _symmetry_equiv_pos_site_id
 _symmetry_equiv_pos_as_xyz
 1  'x, y, z'
loop_
 _atom_site_type_symbol
 _atom_site_label
 _atom_site_symmetry_multiplicity
 _atom_site_fract_x
 _atom_site_fract_y
 _atom_site_fract_z
 _atom_site_fract_occupancy
 Li  Li1  1  1.00000  0.66667  0.16667  1
 Li  Li2  1  0.50000  0.16667  0.16667  1
 Li  Li3  1  0.00000  0.00209  0.48933  1
 Li  Li4  1  0.50000  0.50209  0.48933  1
 Li  Li5  1  0.00000  0.33124  0.84401  1
 Li  Li6  1  0.50000  0.83124  0.84400  1
 Mn  Mn1  1  0.50000  0.50751  -0.00486  1
 Mn  Mn2  1  0.50000  0.82582  0.33820  1
 Mn  Mn3  1  0.00000  0.00751  -0.00487  1
 Mn  Mn4  1  0.00000  0.32582  0.33820  1
 O  O1  1  0.00000  0.15907  0.43405  1
 O  O2  1  0.50000  0.00377  0.22404  1
 O  O3  1  -0.00000  0.50377  0.22404  1
 O  O4  1  0.50000  0.32957  0.10930  1
 O  O5  1  -0.00000  0.82957  0.10930  1
 O  O6  1  0.50000  0.32624  0.57181  1
 O  O7  1  0.50000  0.67427  0.89929  1
 O  O8  1  0.50000  0.00709  0.76153  1
 O  O9  1  -0.00000  0.50709  0.76153  1
 O  O10  1  0.00000  0.17426  0.89929  1
 O  O11  1  0.50000  0.65907  0.43404  1
 O  O12  1  -0.00000  0.82624  0.57181  1
 V  V1  1  -0.00000  0.66667  0.66667  1
 V  V2  1  0.50000  0.16667  0.66667  1
