CIF file written using JARVIS-Tools package.
data_TiNbGaO6
_symmetry_space_group_name_H-M  'P4_2nm'
_cell_length_a       4.67402
_cell_length_b       4.67402
_cell_length_c       9.07953
_cell_angle_alpha    90
_cell_angle_beta     90
_cell_angle_gamma    90

_symmetry_Int_Tables_number  102
_chemical_formula_structural  TiNbGaO6
_chemical_formula_sum  Ti2Nb2Ga2O2
_cell_volume  198.35519507178782
_cell_formula_units_Z  2
loop_
  _symmetry_equiv_pos_site_id
 _symmetry_equiv_pos_as_xyz
 1  'x, y, z'
loop_
 _atom_site_type_symbol
 _atom_site_label
 _atom_site_symmetry_multiplicity
 _atom_site_fract_x
 _atom_site_fract_y
 _atom_site_fract_z
 _atom_site_fract_occupancy
 Ga  Ga1  1  0.50000  0.50000  0.16754  1
 Ga  Ga2  1  0.00000  0.00000  0.66754  1
 Nb  Nb1  1  0.50000  0.50000  0.83340  1
 Nb  Nb2  1  0.00000  0.00000  0.33340  1
 O  O1  1  0.30618  0.30618  0.33533  1
 O  O2  1  0.19597  0.80403  0.16422  1
 O  O3  1  0.20016  0.79984  0.50013  1
 O  O4  1  0.69382  0.69382  0.33533  1
 O  O5  1  0.80403  0.19597  0.16422  1
 O  O6  1  0.19382  0.80618  0.83533  1
 O  O7  1  0.69597  0.69597  0.66422  1
 O  O8  1  0.29984  0.29984  0.00013  1
 O  O9  1  0.79984  0.20016  0.50013  1
 O  O10  1  0.30403  0.30403  0.66422  1
 O  O11  1  0.70016  0.70016  0.00013  1
 O  O12  1  0.80618  0.19382  0.83533  1
 Ti  Ti1  1  0.00000  0.00000  0.99970  1
 Ti  Ti2  1  0.50000  0.50000  0.49970  1
