CIF file written using JARVIS-Tools package.
data_Mn5SnO12
_symmetry_space_group_name_H-M  'C2/m'
_cell_length_a       5.09757
_cell_length_b       5.09757
_cell_length_c       8.99259
_cell_angle_alpha    84.6325
_cell_angle_beta     84.6325
_cell_angle_gamma    119.998

_symmetry_Int_Tables_number  12
_chemical_formula_structural  Mn5SnO12
_chemical_formula_sum  Mn5SnO2
_cell_volume  198.79796376910994
_cell_formula_units_Z  1
loop_
  _symmetry_equiv_pos_site_id
 _symmetry_equiv_pos_as_xyz
 1  'x, y, z'
loop_
 _atom_site_type_symbol
 _atom_site_label
 _atom_site_symmetry_multiplicity
 _atom_site_fract_x
 _atom_site_fract_y
 _atom_site_fract_z
 _atom_site_fract_occupancy
 Mn  Mn1  1  0.83306  0.16694  0.50000  1
 Mn  Mn2  1  0.33333  0.66667  -0.00000  1
 Mn  Mn3  1  0.66667  0.33333  -0.00000  1
 Mn  Mn4  1  0.16694  0.83306  0.50000  1
 Mn  Mn5  1  0.50000  0.50000  0.50000  1
 O  O1  1  0.03729  0.39441  0.88705  1
 O  O2  1  0.60559  0.96271  0.11295  1
 O  O3  1  0.31984  0.31984  0.11293  1
 O  O4  1  0.46579  0.79892  0.60425  1
 O  O5  1  0.79892  0.46579  0.60425  1
 O  O6  1  0.39441  0.03729  0.88705  1
 O  O7  1  0.20108  0.53421  0.39575  1
 O  O8  1  0.53421  0.20108  0.39575  1
 O  O9  1  0.68016  0.68016  0.88707  1
 O  O10  1  0.96271  0.60559  0.11295  1
 O  O11  1  0.86843  0.86843  0.39429  1
 O  O12  1  0.13157  0.13157  0.60571  1
 Sn  Sn1  1  0.00000  0.00000  0.00000  1
