CIF file written using JARVIS-Tools package.
data_UAl6Fe6
_symmetry_space_group_name_H-M  'Immm'
_cell_length_a       6.52204
_cell_length_b       6.52204
_cell_length_c       6.52204
_cell_angle_alpha    135.614
_cell_angle_beta     99.2687
_cell_angle_gamma    97.1402

_symmetry_Int_Tables_number  71
_chemical_formula_structural  UAl6Fe6
_chemical_formula_sum  UAl6Fe6
_cell_volume  179.64069188955747
_cell_formula_units_Z  1
loop_
  _symmetry_equiv_pos_site_id
 _symmetry_equiv_pos_as_xyz
 1  'x, y, z'
loop_
 _atom_site_type_symbol
 _atom_site_label
 _atom_site_symmetry_multiplicity
 _atom_site_fract_x
 _atom_site_fract_y
 _atom_site_fract_z
 _atom_site_fract_occupancy
 Al  Al1  1  0.65172  0.65172  0.00000  1
 Al  Al2  1  0.34828  0.34828  -0.00000  1
 Al  Al3  1  0.34260  -0.00000  0.34260  1
 Al  Al4  1  0.65740  -0.00000  0.65740  1
 Al  Al5  1  0.19923  0.69923  0.50000  1
 Al  Al6  1  0.80077  0.30077  0.50000  1
 Fe  Fe1  1  0.50000  0.50000  0.50000  1
 Fe  Fe2  1  0.50000  0.00000  -0.00000  1
 Fe  Fe3  1  -0.00000  0.50000  -0.00000  1
 Fe  Fe4  1  0.00000  0.00000  0.50000  1
 Fe  Fe5  1  0.76786  0.50000  0.26786  1
 Fe  Fe6  1  0.23214  0.50000  0.73214  1
 U  U1  1  0.00000  0.00000  0.00000  1
