CIF file written using JARVIS-Tools package.
data_NaMnO4
_symmetry_space_group_name_H-M  'Cmcm'
_cell_length_a       5.21838
_cell_length_b       5.21838
_cell_length_c       7.07921
_cell_angle_alpha    90
_cell_angle_beta     90
_cell_angle_gamma    112.558

_symmetry_Int_Tables_number  63
_chemical_formula_structural  NaMnO4
_chemical_formula_sum  Na2Mn2O8
_cell_volume  178.02865373064995
_cell_formula_units_Z  2
loop_
  _symmetry_equiv_pos_site_id
 _symmetry_equiv_pos_as_xyz
 1  'x, y, z'
loop_
 _atom_site_type_symbol
 _atom_site_label
 _atom_site_symmetry_multiplicity
 _atom_site_fract_x
 _atom_site_fract_y
 _atom_site_fract_z
 _atom_site_fract_occupancy
 Mn  Mn1  1  0.37170  0.62830  0.75000  1
 Mn  Mn2  1  0.62830  0.37170  0.25000  1
 Na  Na1  1  0.00000  0.00000  0.00000  1
 Na  Na2  1  0.00000  0.00000  0.50000  1
 O  O1  1  0.29064  0.25035  0.25000  1
 O  O2  1  0.25035  0.29064  0.75000  1
 O  O3  1  0.26637  0.73363  0.56309  1
 O  O4  1  0.73363  0.26637  0.06309  1
 O  O5  1  0.73363  0.26637  0.43691  1
 O  O6  1  0.26637  0.73363  0.93691  1
 O  O7  1  0.74965  0.70936  0.25000  1
 O  O8  1  0.70936  0.74965  0.75000  1
