CIF file written using JARVIS-Tools package.
data_LiFePO4
_symmetry_space_group_name_H-M  'P-1'
_cell_length_a       5.53568
_cell_length_b       6.09591
_cell_length_c       9.29698
_cell_angle_alpha    101.66
_cell_angle_beta     84.5871
_cell_angle_gamma    103.13

_symmetry_Int_Tables_number  2
_chemical_formula_structural  LiFePO4
_chemical_formula_sum  Li4Fe4P4O6
_cell_volume  298.83407607452875
_cell_formula_units_Z  4
loop_
  _symmetry_equiv_pos_site_id
 _symmetry_equiv_pos_as_xyz
 1  'x, y, z'
loop_
 _atom_site_type_symbol
 _atom_site_label
 _atom_site_symmetry_multiplicity
 _atom_site_fract_x
 _atom_site_fract_y
 _atom_site_fract_z
 _atom_site_fract_occupancy
 Fe  Fe1  1  0.22178  -0.00135  0.74385  1
 Fe  Fe2  1  0.78363  0.85175  0.66199  1
 Fe  Fe3  1  0.77822  0.00134  0.25615  1
 Fe  Fe4  1  0.21637  0.14826  0.33800  1
 Li  Li1  1  0.32010  0.33394  0.03077  1
 Li  Li2  1  0.67992  0.66606  0.96923  1
 Li  Li3  1  0.84556  0.51687  0.27221  1
 Li  Li4  1  0.15444  0.48310  0.72779  1
 O  O1  1  0.64149  0.34374  0.92120  1
 O  O2  1  0.16216  0.78520  0.88316  1
 O  O3  1  0.83783  0.21478  0.11685  1
 O  O4  1  0.35854  0.65627  0.07880  1
 O  O5  1  0.92542  0.74634  0.12469  1
 O  O6  1  0.64062  0.26308  0.39698  1
 O  O7  1  0.69675  0.93416  0.87821  1
 O  O8  1  0.07459  0.25365  0.87531  1
 O  O9  1  0.18001  0.86646  0.40307  1
 O  O10  1  0.18710  0.45926  0.37047  1
 O  O11  1  0.60477  0.74622  0.36229  1
 O  O12  1  0.39522  0.25378  0.63772  1
 O  O13  1  0.30325  0.06584  0.12179  1
 O  O14  1  0.81289  0.54076  0.62953  1
 O  O15  1  0.81999  0.13356  0.59693  1
 O  O16  1  0.35937  0.73692  0.60302  1
 P  P1  1  0.19440  0.81051  0.05122  1
 P  P2  1  0.80560  0.18949  0.94878  1
 P  P3  1  0.33719  0.70204  0.43231  1
 P  P4  1  0.66280  0.29797  0.56769  1
