CIF file written using JARVIS-Tools package.
data_SrYGa3O7
_symmetry_space_group_name_H-M  'Cmm2'
_cell_length_a       7.97315
_cell_length_b       7.97315
_cell_length_c       5.27088
_cell_angle_alpha    90
_cell_angle_beta     90
_cell_angle_gamma    91.494

_symmetry_Int_Tables_number  35
_chemical_formula_structural  SrYGa3O7
_chemical_formula_sum  Sr2Y2Ga6O4
_cell_volume  334.9616392562051
_cell_formula_units_Z  2
loop_
  _symmetry_equiv_pos_site_id
 _symmetry_equiv_pos_as_xyz
 1  'x, y, z'
loop_
 _atom_site_type_symbol
 _atom_site_label
 _atom_site_symmetry_multiplicity
 _atom_site_fract_x
 _atom_site_fract_y
 _atom_site_fract_z
 _atom_site_fract_occupancy
 Ga  Ga1  1  0.36008  0.63992  0.03516  1
 Ga  Ga2  1  0.84864  0.84864  0.96708  1
 Ga  Ga3  1  0.63992  0.36008  0.03516  1
 Ga  Ga4  1  0.15136  0.15136  0.96708  1
 Ga  Ga5  1  0.50000  0.00000  0.99156  1
 Ga  Ga6  1  -0.00000  0.50000  0.99156  1
 O  O1  1  0.34577  0.10200  0.77848  1
 O  O2  1  0.00000  0.00000  0.82605  1
 O  O3  1  0.65423  0.89800  0.77848  1
 O  O4  1  0.37620  0.62380  0.68990  1
 O  O5  1  0.83957  0.83957  0.30981  1
 O  O6  1  0.62380  0.37620  0.68990  1
 O  O7  1  0.50000  0.50000  0.22187  1
 O  O8  1  0.41841  0.83604  0.20794  1
 O  O9  1  0.16396  0.58159  0.20794  1
 O  O10  1  0.58159  0.16396  0.20794  1
 O  O11  1  0.10200  0.34577  0.77848  1
 O  O12  1  0.16043  0.16043  0.30981  1
 O  O13  1  0.83604  0.41841  0.20794  1
 O  O14  1  0.89800  0.65423  0.77848  1
 Sr  Sr1  1  0.83816  0.16184  0.49308  1
 Sr  Sr2  1  0.16184  0.83816  0.49308  1
 Y  Y1  1  0.34101  0.34101  0.51660  1
 Y  Y2  1  0.65899  0.65899  0.51660  1
