CIF file written using JARVIS-Tools package.
data_Ti2Al2CrCuS8
_symmetry_space_group_name_H-M  'Cm'
_cell_length_a       6.99607
_cell_length_b       7.1778
_cell_length_c       6.98559
_cell_angle_alpha    90
_cell_angle_beta     60.0495
_cell_angle_gamma    119.33

_symmetry_Int_Tables_number  8
_chemical_formula_structural  Ti2Al2CrCuS8
_chemical_formula_sum  Ti2Al2CrCuS8
_cell_volume  250.71331635307533
_cell_formula_units_Z  1
loop_
  _symmetry_equiv_pos_site_id
 _symmetry_equiv_pos_as_xyz
 1  'x, y, z'
loop_
 _atom_site_type_symbol
 _atom_site_label
 _atom_site_symmetry_multiplicity
 _atom_site_fract_x
 _atom_site_fract_y
 _atom_site_fract_z
 _atom_site_fract_occupancy
 Al  Al1  1  0.23724  0.60870  0.63138  1
 Al  Al2  1  0.49498  0.49724  0.00251  1
 Cr  Cr1  1  0.47470  0.00286  0.01265  1
 Cu  Cu1  1  0.74970  0.37644  0.37515  1
 S  S1  1  0.00665  0.75409  0.24668  1
 S  S2  1  0.01337  0.24951  0.24331  1
 S  S3  1  0.49807  0.25252  0.76881  1
 S  S4  1  0.49807  0.25252  0.23312  1
 S  S5  1  0.97397  0.22173  0.76301  1
 S  S6  1  0.98727  0.75608  0.75636  1
 S  S7  1  0.50852  0.75741  0.22942  1
 S  S8  1  0.50852  0.75741  0.76207  1
 Ti  Ti1  1  0.02446  0.00674  0.46440  1
 Ti  Ti2  1  0.02446  0.00674  0.01114  1
