CIF file written using JARVIS-Tools package.
data_Li2O
_symmetry_space_group_name_H-M  'C2/m'
_cell_length_a       7.12424
_cell_length_b       3.18648
_cell_length_c       3.22893
_cell_angle_alpha    118.938
_cell_angle_beta     48.5412
_cell_angle_gamma    152.698

_symmetry_Int_Tables_number  12
_chemical_formula_structural  Li2O
_chemical_formula_sum  Li2O
_cell_volume  24.0054363464268
_cell_formula_units_Z  1
loop_
  _symmetry_equiv_pos_site_id
 _symmetry_equiv_pos_as_xyz
 1  'x, y, z'
loop_
 _atom_site_type_symbol
 _atom_site_label
 _atom_site_symmetry_multiplicity
 _atom_site_fract_x
 _atom_site_fract_y
 _atom_site_fract_z
 _atom_site_fract_occupancy
 Li  Li1  1  0.37350  -0.08459  0.48492  1
 Li  Li2  1  -0.12763  0.41359  0.48718  1
 O  O1  1  0.12294  0.16448  -0.01398  1
