CIF file written using JARVIS-Tools package.
data_LiVCrP4O14
_symmetry_space_group_name_H-M  'P1'
_cell_length_a       4.80407
_cell_length_b       7.93923
_cell_length_c       6.93989
_cell_angle_alpha    90.3144
_cell_angle_beta     108.152
_cell_angle_gamma    90.712

_symmetry_Int_Tables_number  1
_chemical_formula_structural  LiVCrP4O14
_chemical_formula_sum  LiVCrP4O4
_cell_volume  251.48638751329267
_cell_formula_units_Z  1
loop_
  _symmetry_equiv_pos_site_id
 _symmetry_equiv_pos_as_xyz
 1  'x, y, z'
loop_
 _atom_site_type_symbol
 _atom_site_label
 _atom_site_symmetry_multiplicity
 _atom_site_fract_x
 _atom_site_fract_y
 _atom_site_fract_z
 _atom_site_fract_occupancy
 Cr  Cr1  1  0.78599  0.99925  0.27280  1
 Li  Li1  1  0.83873  0.36971  0.32159  1
 O  O1  1  0.03708  0.33070  0.83567  1
 O  O2  1  0.13016  0.67679  0.89403  1
 O  O3  1  0.18107  0.03451  0.45840  1
 O  O4  1  0.88014  0.19080  0.11242  1
 O  O5  1  0.42453  0.67097  0.62842  1
 O  O6  1  0.25857  0.35039  0.51449  1
 O  O7  1  0.58849  0.14170  0.74926  1
 O  O8  1  0.39058  0.64536  0.25797  1
 O  O9  1  0.39442  0.93651  0.09385  1
 O  O10  1  0.61649  0.18859  0.39198  1
 O  O11  1  0.73098  0.86242  0.48835  1
 O  O12  1  0.83765  0.54797  0.51521  1
 O  O13  1  0.59057  0.43040  0.92119  1
 O  O14  1  0.92437  0.81660  0.14010  1
 P  P1  1  0.60633  0.68647  0.48233  1
 P  P2  1  0.77955  0.27740  0.90848  1
 P  P3  1  0.20484  0.78093  0.09052  1
 P  P4  1  0.40205  0.17676  0.51535  1
 V  V1  1  0.22138  0.50776  0.73043  1
