CIF file written using JARVIS-Tools package.
data_Li2VC2O6
_symmetry_space_group_name_H-M  'Cc'
_cell_length_a       5.20373
_cell_length_b       6.16688
_cell_length_c       8.69192
_cell_angle_alpha    82.6735
_cell_angle_beta     107.551
_cell_angle_gamma    114.992

_symmetry_Int_Tables_number  9
_chemical_formula_structural  Li2VC2O6
_chemical_formula_sum  Li4V2C4O2
_cell_volume  241.0451849346221
_cell_formula_units_Z  2
loop_
  _symmetry_equiv_pos_site_id
 _symmetry_equiv_pos_as_xyz
 1  'x, y, z'
loop_
 _atom_site_type_symbol
 _atom_site_label
 _atom_site_symmetry_multiplicity
 _atom_site_fract_x
 _atom_site_fract_y
 _atom_site_fract_z
 _atom_site_fract_occupancy
 C  C1  1  0.84434  0.60482  0.20240  1
 C  C2  1  0.39215  0.10496  0.29814  1
 C  C3  1  -0.00446  0.90710  0.70242  1
 C  C4  1  0.04285  0.40689  0.79816  1
 Li  Li1  1  0.21000  0.46615  0.16246  1
 Li  Li2  1  0.79850  0.96621  0.33778  1
 Li  Li3  1  0.49962  0.04543  0.66234  1
 Li  Li4  1  0.58822  0.54561  0.83771  1
 O  O1  1  0.16022  0.36528  0.94642  1
 O  O2  1  0.05198  0.56108  0.30986  1
 O  O3  1  0.85510  0.64588  0.05424  1
 O  O4  1  0.12992  0.10680  0.24466  1
 O  O5  1  0.49249  0.06128  0.19113  1
 O  O6  1  0.55130  0.14643  0.44638  1
 O  O7  1  0.78433  0.90469  0.75520  1
 O  O8  1  0.24692  0.95093  0.80995  1
 O  O9  1  0.96544  0.86604  0.55430  1
 O  O10  1  0.63561  0.60714  0.25529  1
 O  O11  1  0.18715  0.45069  0.69122  1
 O  O12  1  0.77880  0.40506  0.74456  1
 V  V1  1  0.11383  0.00578  0.00021  1
 V  V2  1  0.86410  0.50620  0.50022  1
