CIF file written using JARVIS-Tools package.
data_VOF3
_symmetry_space_group_name_H-M  'Pnc2'
_cell_length_a       4.57499
_cell_length_b       4.80604
_cell_length_c       12.5863
_cell_angle_alpha    90
_cell_angle_beta     90
_cell_angle_gamma    90

_symmetry_Int_Tables_number  30
_chemical_formula_structural  VOF3
_chemical_formula_sum  V4O4F2
_cell_volume  276.7431147818889
_cell_formula_units_Z  4
loop_
  _symmetry_equiv_pos_site_id
 _symmetry_equiv_pos_as_xyz
 1  'x, y, z'
loop_
 _atom_site_type_symbol
 _atom_site_label
 _atom_site_symmetry_multiplicity
 _atom_site_fract_x
 _atom_site_fract_y
 _atom_site_fract_z
 _atom_site_fract_occupancy
 F  F1  1  0.27690  0.79839  0.43772  1
 F  F2  1  0.27773  0.17140  0.82886  1
 F  F3  1  0.18605  0.75170  0.19139  1
 F  F4  1  0.72310  0.29839  0.93772  1
 F  F5  1  0.72310  0.20161  0.43772  1
 F  F6  1  0.81395  0.24830  0.19139  1
 F  F7  1  0.27773  0.32860  0.32886  1
 F  F8  1  0.72227  0.67140  0.32886  1
 F  F9  1  0.18605  0.74830  0.69139  1
 F  F10  1  0.72227  0.82860  0.82886  1
 F  F11  1  0.27690  0.70161  0.93772  1
 F  F12  1  0.81395  0.25170  0.69139  1
 O  O1  1  0.74586  0.84942  0.03942  1
 O  O2  1  0.74586  0.65058  0.53942  1
 O  O3  1  0.25414  0.34942  0.53942  1
 O  O4  1  0.25414  0.15058  0.03942  1
 V  V1  1  0.50000  0.50000  0.42059  1
 V  V2  1  0.00000  0.50000  0.61706  1
 V  V3  1  0.50000  0.00000  0.92059  1
 V  V4  1  0.00000  0.00000  0.11706  1
