CIF file written using JARVIS-Tools package.
data_Ta3AlCr8
_symmetry_space_group_name_H-M  'P3m1'
_cell_length_a       4.84941
_cell_length_b       4.84941
_cell_length_c       7.95803
_cell_angle_alpha    90
_cell_angle_beta     90
_cell_angle_gamma    120

_symmetry_Int_Tables_number  156
_chemical_formula_structural  Ta3AlCr8
_chemical_formula_sum  Ta3AlCr8
_cell_volume  162.07412032709092
_cell_formula_units_Z  1
loop_
  _symmetry_equiv_pos_site_id
 _symmetry_equiv_pos_as_xyz
 1  'x, y, z'
loop_
 _atom_site_type_symbol
 _atom_site_label
 _atom_site_symmetry_multiplicity
 _atom_site_fract_x
 _atom_site_fract_y
 _atom_site_fract_z
 _atom_site_fract_occupancy
 Al  Al1  1  0.33333  0.66667  0.56415  1
 Cr  Cr1  1  0.66667  0.33333  0.49867  1
 Cr  Cr2  1  0.66667  0.33333  0.99956  1
 Cr  Cr3  1  0.83600  0.67200  0.74797  1
 Cr  Cr4  1  0.83600  0.16400  0.74797  1
 Cr  Cr5  1  0.32800  0.16400  0.74797  1
 Cr  Cr6  1  0.49588  0.99177  0.25170  1
 Cr  Cr7  1  0.49588  0.50412  0.25170  1
 Cr  Cr8  1  0.00823  0.50412  0.25170  1
 Ta  Ta1  1  0.00000  0.00000  0.44173  1
 Ta  Ta2  1  0.00000  0.00000  0.06081  1
 Ta  Ta3  1  0.33333  0.66667  0.93606  1
