CIF file written using JARVIS-Tools package.
data_SrLaGa3O7
_symmetry_space_group_name_H-M  'Cmm2'
_cell_length_a       8.08994
_cell_length_b       8.08994
_cell_length_c       5.3635
_cell_angle_alpha    90
_cell_angle_beta     90
_cell_angle_gamma    89.9063

_symmetry_Int_Tables_number  35
_chemical_formula_structural  SrLaGa3O7
_chemical_formula_sum  Sr2La2Ga6O4
_cell_volume  351.02509593723084
_cell_formula_units_Z  2
loop_
  _symmetry_equiv_pos_site_id
 _symmetry_equiv_pos_as_xyz
 1  'x, y, z'
loop_
 _atom_site_type_symbol
 _atom_site_label
 _atom_site_symmetry_multiplicity
 _atom_site_fract_x
 _atom_site_fract_y
 _atom_site_fract_z
 _atom_site_fract_occupancy
 Ga  Ga1  1  0.50000  -0.00000  0.00066  1
 Ga  Ga2  1  0.00000  0.50000  0.00066  1
 Ga  Ga3  1  0.35630  0.64370  0.03258  1
 Ga  Ga4  1  0.85577  0.85577  0.96632  1
 Ga  Ga5  1  0.64370  0.35630  0.03258  1
 Ga  Ga6  1  0.14423  0.14423  0.96632  1
 La  La1  1  0.66346  0.66346  0.50686  1
 La  La2  1  0.33654  0.33654  0.50686  1
 O  O1  1  0.65976  0.90852  0.79136  1
 O  O2  1  0.36864  0.63136  0.69322  1
 O  O3  1  0.00000  0.00000  0.81508  1
 O  O4  1  0.63136  0.36864  0.69322  1
 O  O5  1  0.14811  0.14811  0.30489  1
 O  O6  1  0.41939  0.83449  0.20671  1
 O  O7  1  0.85189  0.85189  0.30489  1
 O  O8  1  0.50000  0.50000  0.20031  1
 O  O9  1  0.09148  0.34024  0.79136  1
 O  O10  1  0.34024  0.09148  0.79136  1
 O  O11  1  0.83449  0.41939  0.20671  1
 O  O12  1  0.90852  0.65976  0.79136  1
 O  O13  1  0.16551  0.58061  0.20671  1
 O  O14  1  0.58061  0.16551  0.20671  1
 Sr  Sr1  1  0.83831  0.16169  0.49163  1
 Sr  Sr2  1  0.16169  0.83831  0.49163  1
