CIF file written using JARVIS-Tools package.
data_SrCaI4
_symmetry_space_group_name_H-M  'C2/c'
_cell_length_a       8.94815
_cell_length_b       8.94816
_cell_length_c       7.5736
_cell_angle_alpha    70.7019
_cell_angle_beta     70.7019
_cell_angle_gamma    110.727

_symmetry_Int_Tables_number  15
_chemical_formula_structural  SrCaI4
_chemical_formula_sum  Sr2Ca2I8
_cell_volume  461.4305109715261
_cell_formula_units_Z  2
loop_
  _symmetry_equiv_pos_site_id
 _symmetry_equiv_pos_as_xyz
 1  'x, y, z'
loop_
 _atom_site_type_symbol
 _atom_site_label
 _atom_site_symmetry_multiplicity
 _atom_site_fract_x
 _atom_site_fract_y
 _atom_site_fract_z
 _atom_site_fract_occupancy
 Ca  Ca1  1  0.00151  0.99849  0.25000  1
 Ca  Ca2  1  0.99849  0.00151  0.75000  1
 I  I1  1  0.64003  0.76112  0.73034  1
 I  I2  1  0.94149  0.29764  0.41104  1
 I  I3  1  0.29764  0.94149  0.91104  1
 I  I4  1  0.23888  0.35997  0.76966  1
 I  I5  1  0.76112  0.64003  0.23034  1
 I  I6  1  0.70236  0.05851  0.08896  1
 I  I7  1  0.05851  0.70236  0.58896  1
 I  I8  1  0.35997  0.23888  0.26966  1
 Sr  Sr1  1  0.63627  0.36373  0.75000  1
 Sr  Sr2  1  0.36373  0.63627  0.25000  1
