CIF file written using JARVIS-Tools package.
data_LiMnP2O7
_symmetry_space_group_name_H-M  'P1'
_cell_length_a       4.80118
_cell_length_b       6.66569
_cell_length_c       8.03394
_cell_angle_alpha    92.7635
_cell_angle_beta     93.22
_cell_angle_gamma    107.138

_symmetry_Int_Tables_number  1
_chemical_formula_structural  LiMnP2O7
_chemical_formula_sum  Li2Mn2P4O4
_cell_volume  244.74104158731743
_cell_formula_units_Z  2
loop_
  _symmetry_equiv_pos_site_id
 _symmetry_equiv_pos_as_xyz
 1  'x, y, z'
loop_
 _atom_site_type_symbol
 _atom_site_label
 _atom_site_symmetry_multiplicity
 _atom_site_fract_x
 _atom_site_fract_y
 _atom_site_fract_z
 _atom_site_fract_occupancy
 Li  Li1  1  0.43678  0.52284  0.93123  1
 Li  Li2  1  0.06088  0.97296  0.44136  1
 Mn  Mn1  1  0.50854  0.50092  0.49771  1
 Mn  Mn2  1  0.00982  0.00700  -0.00085  1
 O  O1  1  0.41625  0.21958  0.91216  1
 O  O2  1  0.03815  0.75173  0.87474  1
 O  O3  1  0.97786  0.25975  0.11995  1
 O  O4  1  0.31946  0.59278  0.68744  1
 O  O5  1  0.66051  0.33565  0.64543  1
 O  O6  1  0.81566  0.06990  0.80349  1
 O  O7  1  0.87922  0.71557  0.55791  1
 O  O8  1  0.14166  0.28646  0.43415  1
 O  O9  1  0.35971  0.67197  0.35263  1
 O  O10  1  0.32272  0.97214  0.64850  1
 O  O11  1  0.69625  0.41146  0.31642  1
 O  O12  1  0.19266  0.93331  0.20184  1
 O  O13  1  0.70085  0.02927  0.33897  1
 O  O14  1  0.58073  0.78587  0.07377  1
 P  P1  1  0.45012  0.84182  0.23001  1
 P  P2  1  0.89085  0.26939  0.30000  1
 P  P3  1  0.12545  0.73986  0.69513  1
 P  P4  1  0.56480  0.16044  0.76317  1
