CIF file written using JARVIS-Tools package.
data_Ta3In2S6
_symmetry_space_group_name_H-M  'R32'
_cell_length_a       8.79318
_cell_length_b       8.79318
_cell_length_c       8.79318
_cell_angle_alpha    38.656
_cell_angle_beta     38.656
_cell_angle_gamma    38.6561

_symmetry_Int_Tables_number  155
_chemical_formula_structural  Ta3In2S6
_chemical_formula_sum  Ta3In2S6
_cell_volume  238.41574566043892
_cell_formula_units_Z  1
loop_
  _symmetry_equiv_pos_site_id
 _symmetry_equiv_pos_as_xyz
 1  'x, y, z'
loop_
 _atom_site_type_symbol
 _atom_site_label
 _atom_site_symmetry_multiplicity
 _atom_site_fract_x
 _atom_site_fract_y
 _atom_site_fract_z
 _atom_site_fract_occupancy
 In  In1  1  0.15695  0.15695  0.15695  1
 In  In2  1  0.84305  0.84305  0.84305  1
 S  S1  1  0.39864  0.72830  0.06570  1
 S  S2  1  0.06570  0.39864  0.72830  1
 S  S3  1  0.72830  0.06570  0.39864  1
 S  S4  1  0.27170  0.60136  0.93430  1
 S  S5  1  0.93430  0.27170  0.60136  1
 S  S6  1  0.60136  0.93430  0.27170  1
 Ta  Ta1  1  0.33313  0.33313  0.33313  1
 Ta  Ta2  1  0.66687  0.66687  0.66687  1
 Ta  Ta3  1  0.00000  0.00000  0.00000  1
