CIF file written using JARVIS-Tools package.
data_BaGaGe
_symmetry_space_group_name_H-M  'P6_3/mmc'
_cell_length_a       4.38475
_cell_length_b       4.38474
_cell_length_c       20.4612
_cell_angle_alpha    90
_cell_angle_beta     90
_cell_angle_gamma    120

_symmetry_Int_Tables_number  194
_chemical_formula_structural  BaGaGe
_chemical_formula_sum  Ba4Ga4Ge4
_cell_volume  340.68346456644804
_cell_formula_units_Z  4
loop_
  _symmetry_equiv_pos_site_id
 _symmetry_equiv_pos_as_xyz
 1  'x, y, z'
loop_
 _atom_site_type_symbol
 _atom_site_label
 _atom_site_symmetry_multiplicity
 _atom_site_fract_x
 _atom_site_fract_y
 _atom_site_fract_z
 _atom_site_fract_occupancy
 Ba  Ba1  1  0.00000  0.00000  0.50000  1
 Ba  Ba2  1  0.00000  0.00000  0.00000  1
 Ba  Ba3  1  0.00000  0.00000  0.25000  1
 Ba  Ba4  1  0.00000  0.00000  0.75000  1
 Ga  Ga1  1  0.33333  0.66667  0.35992  1
 Ga  Ga2  1  0.66667  0.33333  0.64008  1
 Ga  Ga3  1  0.66667  0.33333  0.85992  1
 Ga  Ga4  1  0.33333  0.66667  0.14008  1
 Ge  Ge1  1  0.33333  0.66667  0.88691  1
 Ge  Ge2  1  0.66667  0.33333  0.11309  1
 Ge  Ge3  1  0.66667  0.33333  0.38691  1
 Ge  Ge4  1  0.33333  0.66667  0.61309  1
