CIF file written using JARVIS-Tools package.
data_TiCo3O8
_symmetry_space_group_name_H-M  'P6_3mc'
_cell_length_a       5.61208
_cell_length_b       5.61209
_cell_length_c       8.8734
_cell_angle_alpha    90
_cell_angle_beta     90
_cell_angle_gamma    120

_symmetry_Int_Tables_number  186
_chemical_formula_structural  TiCo3O8
_chemical_formula_sum  Ti2Co6O6
_cell_volume  242.02976253728264
_cell_formula_units_Z  2
loop_
  _symmetry_equiv_pos_site_id
 _symmetry_equiv_pos_as_xyz
 1  'x, y, z'
loop_
 _atom_site_type_symbol
 _atom_site_label
 _atom_site_symmetry_multiplicity
 _atom_site_fract_x
 _atom_site_fract_y
 _atom_site_fract_z
 _atom_site_fract_occupancy
 Co  Co1  1  0.16749  0.83251  0.21354  1
 Co  Co2  1  0.16749  0.33497  0.21354  1
 Co  Co3  1  0.66503  0.83251  0.21354  1
 Co  Co4  1  0.33497  0.16749  0.71354  1
 Co  Co5  1  0.83251  0.66503  0.71354  1
 Co  Co6  1  0.83251  0.16749  0.71354  1
 O  O1  1  0.51728  0.48272  0.83208  1
 O  O2  1  0.16316  0.83684  0.60134  1
 O  O3  1  0.03457  0.51728  0.33208  1
 O  O4  1  0.33333  0.66667  0.10552  1
 O  O5  1  0.96543  0.48272  0.83208  1
 O  O6  1  0.00000  0.00000  0.81674  1
 O  O7  1  0.16316  0.32632  0.60134  1
 O  O8  1  0.00000  0.00000  0.31674  1
 O  O9  1  0.83684  0.16316  0.10134  1
 O  O10  1  0.32632  0.16316  0.10134  1
 O  O11  1  0.67368  0.83684  0.60134  1
 O  O12  1  0.48272  0.96543  0.33208  1
 O  O13  1  0.51728  0.03457  0.83208  1
 O  O14  1  0.66667  0.33333  0.60552  1
 O  O15  1  0.83684  0.67368  0.10134  1
 O  O16  1  0.48272  0.51728  0.33208  1
 Ti  Ti1  1  0.66667  0.33333  0.99468  1
 Ti  Ti2  1  0.33333  0.66667  0.49468  1
