CIF file written using JARVIS-Tools package.
data_ErGaIr
_symmetry_space_group_name_H-M  'Pnma'
_cell_length_a       4.27645
_cell_length_b       6.77006
_cell_length_c       7.78774
_cell_angle_alpha    90
_cell_angle_beta     90
_cell_angle_gamma    90

_symmetry_Int_Tables_number  62
_chemical_formula_structural  ErGaIr
_chemical_formula_sum  Er4Ga4Ir4
_cell_volume  225.46918026733954
_cell_formula_units_Z  4
loop_
  _symmetry_equiv_pos_site_id
 _symmetry_equiv_pos_as_xyz
 1  'x, y, z'
loop_
 _atom_site_type_symbol
 _atom_site_label
 _atom_site_symmetry_multiplicity
 _atom_site_fract_x
 _atom_site_fract_y
 _atom_site_fract_z
 _atom_site_fract_occupancy
 Er  Er1  1  0.25000  0.97453  0.31356  1
 Er  Er2  1  0.25000  0.47453  0.18644  1
 Er  Er3  1  0.75000  0.02547  0.68644  1
 Er  Er4  1  0.75000  0.52547  0.81356  1
 Ga  Ga1  1  0.25000  0.34492  0.56799  1
 Ga  Ga2  1  0.25000  0.84492  0.93201  1
 Ga  Ga3  1  0.75000  0.65508  0.43201  1
 Ga  Ga4  1  0.75000  0.15508  0.06799  1
 Ir  Ir1  1  0.25000  0.23342  0.88723  1
 Ir  Ir2  1  0.25000  0.73342  0.61277  1
 Ir  Ir3  1  0.75000  0.76658  0.11277  1
 Ir  Ir4  1  0.75000  0.26658  0.38723  1
