CIF file written using JARVIS-Tools package.
data_SrCaTi2O6
_symmetry_space_group_name_H-M  'Pmc2_1'
_cell_length_a       5.49509
_cell_length_b       5.5226
_cell_length_c       7.75227
_cell_angle_alpha    90
_cell_angle_beta     90
_cell_angle_gamma    90

_symmetry_Int_Tables_number  26
_chemical_formula_structural  SrCaTi2O6
_chemical_formula_sum  Sr2Ca2Ti4O2
_cell_volume  235.2597836374276
_cell_formula_units_Z  2
loop_
  _symmetry_equiv_pos_site_id
 _symmetry_equiv_pos_as_xyz
 1  'x, y, z'
loop_
 _atom_site_type_symbol
 _atom_site_label
 _atom_site_symmetry_multiplicity
 _atom_site_fract_x
 _atom_site_fract_y
 _atom_site_fract_z
 _atom_site_fract_occupancy
 Ca  Ca1  1  0.24429  0.03841  0.00000  1
 Ca  Ca2  1  0.75571  0.53841  0.00000  1
 O  O1  1  0.32067  0.47689  0.00000  1
 O  O2  1  0.03109  0.77444  0.78907  1
 O  O3  1  0.20215  0.49913  0.50000  1
 O  O4  1  0.47157  0.21574  0.27288  1
 O  O5  1  0.52843  0.71574  0.72712  1
 O  O6  1  0.96891  0.27444  0.21093  1
 O  O7  1  0.52843  0.71574  0.27288  1
 O  O8  1  0.03109  0.77444  0.21093  1
 O  O9  1  0.79785  -0.00087  0.50000  1
 O  O10  1  0.47157  0.21574  0.72712  1
 O  O11  1  0.67933  0.97689  0.00000  1
 O  O12  1  0.96891  0.27444  0.78907  1
 Sr  Sr1  1  0.74797  0.48431  0.50000  1
 Sr  Sr2  1  0.25203  0.98431  0.50000  1
 Ti  Ti1  1  0.74610  0.01045  0.75512  1
 Ti  Ti2  1  0.25390  0.51045  0.24488  1
 Ti  Ti3  1  0.74610  0.01045  0.24488  1
 Ti  Ti4  1  0.25390  0.51045  0.75512  1
