CIF file written using JARVIS-Tools package.
data_SmGaPd
_symmetry_space_group_name_H-M  'Pnma'
_cell_length_a       4.50833
_cell_length_b       7.07132
_cell_length_c       7.71108
_cell_angle_alpha    90
_cell_angle_beta     90
_cell_angle_gamma    90

_symmetry_Int_Tables_number  62
_chemical_formula_structural  SmGaPd
_chemical_formula_sum  Sm4Ga4Pd4
_cell_volume  245.82806853971942
_cell_formula_units_Z  4
loop_
  _symmetry_equiv_pos_site_id
 _symmetry_equiv_pos_as_xyz
 1  'x, y, z'
loop_
 _atom_site_type_symbol
 _atom_site_label
 _atom_site_symmetry_multiplicity
 _atom_site_fract_x
 _atom_site_fract_y
 _atom_site_fract_z
 _atom_site_fract_occupancy
 Ga  Ga1  1  0.25000  0.67796  0.57852  1
 Ga  Ga2  1  0.25000  0.17796  0.92148  1
 Ga  Ga3  1  0.75000  0.32204  0.42148  1
 Ga  Ga4  1  0.75000  0.82204  0.07852  1
 Pd  Pd1  1  0.25000  0.28556  0.59346  1
 Pd  Pd2  1  0.25000  0.78556  0.90654  1
 Pd  Pd3  1  0.75000  0.71444  0.40654  1
 Pd  Pd4  1  0.75000  0.21444  0.09346  1
 Sm  Sm1  1  0.25000  0.01760  0.30033  1
 Sm  Sm2  1  0.25000  0.51760  0.19967  1
 Sm  Sm3  1  0.75000  0.98240  0.69967  1
 Sm  Sm4  1  0.75000  0.48240  0.80033  1
