CIF file written using JARVIS-Tools package.
data_Sr3NdMn2O8
_symmetry_space_group_name_H-M  'Amm2'
_cell_length_a       6.75361
_cell_length_b       6.75361
_cell_length_c       5.44868
_cell_angle_alpha    90
_cell_angle_beta     90
_cell_angle_gamma    132.421

_symmetry_Int_Tables_number  38
_chemical_formula_structural  Sr3NdMn2O8
_chemical_formula_sum  Sr3NdMn2O8
_cell_volume  183.46139555044297
_cell_formula_units_Z  1
loop_
  _symmetry_equiv_pos_site_id
 _symmetry_equiv_pos_as_xyz
 1  'x, y, z'
loop_
 _atom_site_type_symbol
 _atom_site_label
 _atom_site_symmetry_multiplicity
 _atom_site_fract_x
 _atom_site_fract_y
 _atom_site_fract_z
 _atom_site_fract_occupancy
 Mn  Mn1  1  0.49864  0.50136  0.50000  1
 Mn  Mn2  1  0.99840  0.00160  0.00000  1
 Nd  Nd1  1  0.13755  0.86245  0.50000  1
 O  O1  1  0.84312  0.15688  0.00000  1
 O  O2  1  0.33129  0.66871  0.50000  1
 O  O3  1  0.65854  0.34146  0.50000  1
 O  O4  1  0.16014  0.83986  0.00000  1
 O  O5  1  0.24957  0.24241  0.25557  1
 O  O6  1  0.75759  0.75043  0.74443  1
 O  O7  1  0.24957  0.24241  0.74443  1
 O  O8  1  0.75759  0.75043  0.25557  1
 Sr  Sr1  1  0.64393  0.35607  0.00000  1
 Sr  Sr2  1  0.35856  0.64144  0.00000  1
 Sr  Sr3  1  0.85550  0.14450  0.50000  1
