CIF file written using JARVIS-Tools package.
data_Sm4Ti4S4O9
_symmetry_space_group_name_H-M  'Cm'
_cell_length_a       9.23108
_cell_length_b       9.23108
_cell_length_c       12.7731
_cell_angle_alpha    47.1222
_cell_angle_beta     47.1222
_cell_angle_gamma    23.0809

_symmetry_Int_Tables_number  8
_chemical_formula_structural  Sm4Ti4S4O9
_chemical_formula_sum  Sm4Ti4S4O9
_cell_volume  307.0164977497365
_cell_formula_units_Z  1
loop_
  _symmetry_equiv_pos_site_id
 _symmetry_equiv_pos_as_xyz
 1  'x, y, z'
loop_
 _atom_site_type_symbol
 _atom_site_label
 _atom_site_symmetry_multiplicity
 _atom_site_fract_x
 _atom_site_fract_y
 _atom_site_fract_z
 _atom_site_fract_occupancy
 O  O1  1  0.98359  0.98359  0.54282  1
 O  O2  1  0.68024  0.68024  0.01653  1
 O  O3  1  0.32248  0.32248  0.97455  1
 O  O4  1  0.40909  0.40909  0.13764  1
 O  O5  1  0.58851  0.58851  0.86475  1
 O  O6  1  0.23379  0.23379  0.43913  1
 O  O7  1  0.76733  0.76733  0.56024  1
 O  O8  1  0.03753  0.03753  0.09884  1
 O  O9  1  0.95972  0.95972  0.90637  1
 S  S1  1  0.69351  0.69351  0.27916  1
 S  S2  1  0.29186  0.29186  0.73466  1
 S  S3  1  0.54528  0.54528  0.65630  1
 S  S4  1  0.46124  0.46124  0.35091  1
 Sm  Sm1  1  0.84451  0.84451  0.31173  1
 Sm  Sm2  1  0.15490  0.15490  0.69037  1
 Sm  Sm3  1  0.14157  0.14157  0.16003  1
 Sm  Sm4  1  0.86738  0.86738  0.82159  1
 Ti  Ti1  1  0.56542  0.56542  0.03073  1
 Ti  Ti2  1  0.43355  0.43355  0.96873  1
 Ti  Ti3  1  0.11780  0.11780  0.46295  1
 Ti  Ti4  1  0.87920  0.87920  0.54459  1
