CIF file written using JARVIS-Tools package.
data_ErCo3Si2
_symmetry_space_group_name_H-M  'Imma'
_cell_length_a       6.23214
_cell_length_b       6.23214
_cell_length_c       6.23214
_cell_angle_alpha    130.501
_cell_angle_beta     113.209
_cell_angle_gamma    87.5038

_symmetry_Int_Tables_number  74
_chemical_formula_structural  ErCo3Si2
_chemical_formula_sum  Er2Co6Si4
_cell_volume  161.15866366971142
_cell_formula_units_Z  2
loop_
  _symmetry_equiv_pos_site_id
 _symmetry_equiv_pos_as_xyz
 1  'x, y, z'
loop_
 _atom_site_type_symbol
 _atom_site_label
 _atom_site_symmetry_multiplicity
 _atom_site_fract_x
 _atom_site_fract_y
 _atom_site_fract_z
 _atom_site_fract_occupancy
 Co  Co1  1  -0.00000  0.00000  0.50000  1
 Co  Co2  1  0.50000  0.00000  0.00000  1
 Co  Co3  1  0.72211  -0.00000  0.72211  1
 Co  Co4  1  0.22211  0.50000  0.72211  1
 Co  Co5  1  0.27789  0.00000  0.27789  1
 Co  Co6  1  0.77789  0.50000  0.27789  1
 Er  Er1  1  0.25000  0.53508  0.28508  1
 Er  Er2  1  0.75000  0.46492  0.71492  1
 Si  Si1  1  0.08076  0.87642  0.79566  1
 Si  Si2  1  0.91924  0.12358  0.20434  1
 Si  Si3  1  0.58076  0.78511  0.20434  1
 Si  Si4  1  0.41924  0.21489  0.79566  1
