CIF file written using JARVIS-Tools package.
data_CoTe2
_symmetry_space_group_name_H-M  'Pa-3'
_cell_length_a       6.34022
_cell_length_b       6.34022
_cell_length_c       6.34022
_cell_angle_alpha    90
_cell_angle_beta     90
_cell_angle_gamma    90

_symmetry_Int_Tables_number  205
_chemical_formula_structural  CoTe2
_chemical_formula_sum  Co4Te8
_cell_volume  254.86616960457505
_cell_formula_units_Z  4
loop_
  _symmetry_equiv_pos_site_id
 _symmetry_equiv_pos_as_xyz
 1  'x, y, z'
loop_
 _atom_site_type_symbol
 _atom_site_label
 _atom_site_symmetry_multiplicity
 _atom_site_fract_x
 _atom_site_fract_y
 _atom_site_fract_z
 _atom_site_fract_occupancy
 Co  Co1  1  0.50000  0.50000  0.00000  1
 Co  Co2  1  0.50000  0.00000  0.50000  1
 Co  Co3  1  0.00000  0.50000  0.50000  1
 Co  Co4  1  0.00000  0.00000  0.00000  1
 Te  Te1  1  0.13497  0.86503  0.36503  1
 Te  Te2  1  0.86503  0.36503  0.13497  1
 Te  Te3  1  0.36503  0.13497  0.86503  1
 Te  Te4  1  0.63497  0.63497  0.63497  1
 Te  Te5  1  0.86503  0.13497  0.63497  1
 Te  Te6  1  0.13497  0.63497  0.86503  1
 Te  Te7  1  0.63497  0.86503  0.13497  1
 Te  Te8  1  0.36503  0.36503  0.36503  1
