CIF file written using JARVIS-Tools package.
data_SrCa3Ru4O12
_symmetry_space_group_name_H-M  'Pm'
_cell_length_a       7.74581
_cell_length_b       5.41708
_cell_length_c       5.58406
_cell_angle_alpha    89.9545
_cell_angle_beta     90
_cell_angle_gamma    90

_symmetry_Int_Tables_number  6
_chemical_formula_structural  SrCa3Ru4O12
_chemical_formula_sum  SrCa3Ru4O2
_cell_volume  234.30545620856705
_cell_formula_units_Z  1
loop_
  _symmetry_equiv_pos_site_id
 _symmetry_equiv_pos_as_xyz
 1  'x, y, z'
loop_
 _atom_site_type_symbol
 _atom_site_label
 _atom_site_symmetry_multiplicity
 _atom_site_fract_x
 _atom_site_fract_y
 _atom_site_fract_z
 _atom_site_fract_occupancy
 Ca  Ca1  1  0.50000  0.01552  0.05499  1
 Ca  Ca2  1  0.00000  0.51333  0.44036  1
 Ca  Ca3  1  0.00000  0.98601  0.94500  1
 O  O1  1  0.50000  0.59463  0.99111  1
 O  O2  1  0.29505  0.19370  0.80199  1
 O  O3  1  0.00000  0.40414  0.02212  1
 O  O4  1  0.80159  0.79885  0.20405  1
 O  O5  1  0.20107  0.69758  0.70198  1
 O  O6  1  0.71411  0.29487  0.29066  1
 O  O7  1  0.79893  0.69758  0.70198  1
 O  O8  1  0.70495  0.19370  0.80199  1
 O  O9  1  0.00000  0.09541  0.53182  1
 O  O10  1  0.19841  0.79885  0.20405  1
 O  O11  1  0.50000  0.93051  0.47112  1
 O  O12  1  0.28589  0.29487  0.29066  1
 Ru  Ru1  1  0.24755  0.49927  0.99941  1
 Ru  Ru2  1  0.75286  0.00055  0.50032  1
 Ru  Ru3  1  0.75245  0.49927  0.99941  1
 Ru  Ru4  1  0.24714  0.00055  0.50032  1
 Sr  Sr1  1  0.50000  0.49080  0.54663  1
