CIF file written using JARVIS-Tools package.
data_Sr12Sn4N3
_symmetry_space_group_name_H-M  'P4/mmm'
_cell_length_a       5.2338
_cell_length_b       5.2338
_cell_length_c       20.9852
_cell_angle_alpha    90
_cell_angle_beta     90
_cell_angle_gamma    90

_symmetry_Int_Tables_number  123
_chemical_formula_structural  Sr12Sn4N3
_chemical_formula_sum  Sr2Sn4N3
_cell_volume  574.8395133711522
_cell_formula_units_Z  1
loop_
  _symmetry_equiv_pos_site_id
 _symmetry_equiv_pos_as_xyz
 1  'x, y, z'
loop_
 _atom_site_type_symbol
 _atom_site_label
 _atom_site_symmetry_multiplicity
 _atom_site_fract_x
 _atom_site_fract_y
 _atom_site_fract_z
 _atom_site_fract_occupancy
 N  N1  1  0.50000  0.50000  0.75078  1
 N  N2  1  0.50000  0.50000  0.50000  1
 N  N3  1  0.50000  0.50000  0.24922  1
 Sn  Sn1  1  0.00000  0.00000  0.62496  1
 Sn  Sn2  1  0.00000  0.00000  0.37504  1
 Sn  Sn3  1  0.00000  0.00000  0.11761  1
 Sn  Sn4  1  0.00000  0.00000  0.88239  1
 Sr  Sr1  1  0.50000  0.00000  0.25391  1
 Sr  Sr2  1  0.50000  0.50000  0.13501  1
 Sr  Sr3  1  0.50000  0.50000  0.86499  1
 Sr  Sr4  1  0.50000  0.00000  0.00000  1
 Sr  Sr5  1  0.00000  0.50000  0.25391  1
 Sr  Sr6  1  0.50000  0.00000  0.50000  1
 Sr  Sr7  1  0.50000  0.00000  0.74609  1
 Sr  Sr8  1  0.00000  0.50000  0.00000  1
 Sr  Sr9  1  0.00000  0.50000  0.50000  1
 Sr  Sr10  1  0.00000  0.50000  0.74609  1
 Sr  Sr11  1  0.50000  0.50000  0.62300  1
 Sr  Sr12  1  0.50000  0.50000  0.37700  1
