CIF file written using JARVIS-Tools package.
data_YbP4Rh6
_symmetry_space_group_name_H-M  'P-6'
_cell_length_a       7.02813
_cell_length_b       7.02813
_cell_length_c       3.7042
_cell_angle_alpha    90
_cell_angle_beta     90
_cell_angle_gamma    120

_symmetry_Int_Tables_number  174
_chemical_formula_structural  YbP4Rh6
_chemical_formula_sum  YbP4Rh6
_cell_volume  158.45479059157205
_cell_formula_units_Z  1
loop_
  _symmetry_equiv_pos_site_id
 _symmetry_equiv_pos_as_xyz
 1  'x, y, z'
loop_
 _atom_site_type_symbol
 _atom_site_label
 _atom_site_symmetry_multiplicity
 _atom_site_fract_x
 _atom_site_fract_y
 _atom_site_fract_z
 _atom_site_fract_occupancy
 P  P1  1  0.66667  0.33333  0.50000  1
 P  P2  1  0.19376  0.37254  0.00000  1
 P  P3  1  0.17878  0.80624  0.00000  1
 P  P4  1  0.62746  0.82122  0.00000  1
 Rh  Rh1  1  0.48731  0.93221  0.50000  1
 Rh  Rh2  1  0.44490  0.51269  0.50000  1
 Rh  Rh3  1  0.06779  0.55510  0.50000  1
 Rh  Rh4  1  0.78998  0.60514  0.00000  1
 Rh  Rh5  1  0.81517  0.21002  0.00000  1
 Rh  Rh6  1  0.39486  0.18483  0.00000  1
 Yb  Yb1  1  0.00000  0.00000  0.50000  1
