CIF file written using JARVIS-Tools package.
data_Sb6O13
_symmetry_space_group_name_H-M  'Imm2'
_cell_length_a       7.37179
_cell_length_b       7.37179
_cell_length_c       7.37178
_cell_angle_alpha    120.646
_cell_angle_beta     120.329
_cell_angle_gamma    89.158

_symmetry_Int_Tables_number  44
_chemical_formula_structural  Sb6O13
_chemical_formula_sum  Sb6O3
_cell_volume  281.14905271956565
_cell_formula_units_Z  1
loop_
  _symmetry_equiv_pos_site_id
 _symmetry_equiv_pos_as_xyz
 1  'x, y, z'
loop_
 _atom_site_type_symbol
 _atom_site_label
 _atom_site_symmetry_multiplicity
 _atom_site_fract_x
 _atom_site_fract_y
 _atom_site_fract_z
 _atom_site_fract_occupancy
 O  O1  1  0.67674  0.67674  0.00000  1
 O  O2  1  0.42665  0.92665  0.50000  1
 O  O3  1  0.81605  0.31605  0.50000  1
 O  O4  1  0.41595  0.93012  0.09106  1
 O  O5  1  0.07818  0.67322  0.01884  1
 O  O6  1  0.83906  0.93012  0.51417  1
 O  O7  1  0.83906  0.32489  0.90894  1
 O  O8  1  0.06932  0.06932  -0.00000  1
 O  O9  1  0.41595  0.32489  0.48583  1
 O  O10  1  0.16354  0.66354  0.50000  1
 O  O11  1  0.65437  0.67322  0.59504  1
 O  O12  1  0.65437  0.05933  0.98116  1
 O  O13  1  0.07818  0.05933  0.40496  1
 Sb  Sb1  1  0.25245  0.98930  0.73685  1
 Sb  Sb2  1  0.25245  0.51561  0.26315  1
 Sb  Sb3  1  0.74670  0.49719  0.75049  1
 Sb  Sb4  1  0.74670  0.99621  0.24951  1
 Sb  Sb5  1  0.75183  0.99964  0.75220  1
 Sb  Sb6  1  0.24744  0.99964  0.24780  1
