CIF file written using JARVIS-Tools package.
data_BaC
_symmetry_space_group_name_H-M  'P-1'
_cell_length_a       8.29665
_cell_length_b       7.8876
_cell_length_c       4.55173
_cell_angle_alpha    92.1672
_cell_angle_beta     73.8556
_cell_angle_gamma    32.8496

_symmetry_Int_Tables_number  2
_chemical_formula_structural  BaC
_chemical_formula_sum  Ba2C2
_cell_volume  132.48336400397432
_cell_formula_units_Z  2
loop_
  _symmetry_equiv_pos_site_id
 _symmetry_equiv_pos_as_xyz
 1  'x, y, z'
loop_
 _atom_site_type_symbol
 _atom_site_label
 _atom_site_symmetry_multiplicity
 _atom_site_fract_x
 _atom_site_fract_y
 _atom_site_fract_z
 _atom_site_fract_occupancy
 Ba  Ba1  1  0.03427  0.03407  0.59210  1
 Ba  Ba2  1  0.08975  0.52710  0.95354  1
 C  C1  1  0.47474  0.32250  0.21539  1
 C  C2  1  0.64930  0.23866  0.33025  1
