CIF file written using JARVIS-Tools package.
data_FeSO4F
_symmetry_space_group_name_H-M  'C2/c'
_cell_length_a       6.96696
_cell_length_b       7.41476
_cell_length_c       7.36793
_cell_angle_alpha    119.6
_cell_angle_beta     90.0001
_cell_angle_gamma    90

_symmetry_Int_Tables_number  15
_chemical_formula_structural  FeSO4F
_chemical_formula_sum  Fe4S4O6F4
_cell_volume  330.94407663759625
_cell_formula_units_Z  4
loop_
  _symmetry_equiv_pos_site_id
 _symmetry_equiv_pos_as_xyz
 1  'x, y, z'
loop_
 _atom_site_type_symbol
 _atom_site_label
 _atom_site_symmetry_multiplicity
 _atom_site_fract_x
 _atom_site_fract_y
 _atom_site_fract_z
 _atom_site_fract_occupancy
 F  F1  1  0.66158  0.50000  0.75000  1
 F  F2  1  0.33842  0.50000  0.25000  1
 F  F3  1  0.16159  0.00000  0.75000  1
 F  F4  1  0.83841  -0.00000  0.25000  1
 Fe  Fe1  1  0.75000  0.75000  -0.00000  1
 Fe  Fe2  1  0.25000  0.75000  0.50000  1
 Fe  Fe3  1  0.25000  0.25000  -0.00000  1
 Fe  Fe4  1  0.75000  0.25000  0.50000  1
 O  O1  1  0.47866  0.15780  0.42138  1
 O  O2  1  0.02134  0.34220  0.57862  1
 O  O3  1  0.97866  0.34220  0.07862  1
 O  O4  1  0.47866  0.84220  0.07862  1
 O  O5  1  0.52134  0.15780  0.92138  1
 O  O6  1  0.02134  0.65780  0.92138  1
 O  O7  1  0.97866  0.65780  0.42138  1
 O  O8  1  0.52134  0.84220  0.57862  1
 O  O9  1  0.26862  0.60206  0.66623  1
 O  O10  1  0.23138  0.89794  0.33377  1
 O  O11  1  0.73138  0.39794  0.33377  1
 O  O12  1  0.76862  0.10206  0.66623  1
 O  O13  1  0.73138  0.60206  0.16623  1
 O  O14  1  0.23138  0.10206  0.16623  1
 O  O15  1  0.76862  0.89794  0.83377  1
 O  O16  1  0.26862  0.39794  0.83377  1
 S  S1  1  0.14271  0.50000  0.75000  1
 S  S2  1  0.64271  0.00000  0.75000  1
 S  S3  1  0.85729  0.50000  0.25000  1
 S  S4  1  0.35729  0.00000  0.25000  1
