CIF file written using JARVIS-Tools package.
data_Sb4Se3S3
_symmetry_space_group_name_H-M  'Pmc2_1'
_cell_length_a       3.9685
_cell_length_b       11.3945
_cell_length_c       11.6617
_cell_angle_alpha    90
_cell_angle_beta     90
_cell_angle_gamma    90

_symmetry_Int_Tables_number  26
_chemical_formula_structural  Sb4Se3S3
_chemical_formula_sum  Sb8Se6S6
_cell_volume  527.328722492083
_cell_formula_units_Z  2
loop_
  _symmetry_equiv_pos_site_id
 _symmetry_equiv_pos_as_xyz
 1  'x, y, z'
loop_
 _atom_site_type_symbol
 _atom_site_label
 _atom_site_symmetry_multiplicity
 _atom_site_fract_x
 _atom_site_fract_y
 _atom_site_fract_z
 _atom_site_fract_occupancy
 S  S1  1  0.00000  0.94633  0.20976  1
 S  S2  1  0.00000  0.69913  0.37881  1
 S  S3  1  0.50000  0.19219  0.12574  1
 S  S4  1  0.50000  0.80781  0.62574  1
 S  S5  1  0.00000  0.05367  0.70976  1
 S  S6  1  0.00000  0.30087  0.87881  1
 Sb  Sb1  1  0.50000  0.41046  0.97592  1
 Sb  Sb2  1  0.50000  0.20566  0.65185  1
 Sb  Sb3  1  0.00000  0.07950  0.02959  1
 Sb  Sb4  1  0.00000  0.92050  0.52959  1
 Sb  Sb5  1  0.00000  0.70877  0.84684  1
 Sb  Sb6  1  0.00000  0.29123  0.34684  1
 Sb  Sb7  1  0.50000  0.79434  0.15185  1
 Sb  Sb8  1  0.50000  0.58954  0.47592  1
 Se  Se1  1  0.50000  0.88446  0.94249  1
 Se  Se2  1  0.00000  0.61972  0.05710  1
 Se  Se3  1  0.50000  0.54686  0.78191  1
 Se  Se4  1  0.50000  0.45314  0.28191  1
 Se  Se5  1  0.00000  0.38028  0.55710  1
 Se  Se6  1  0.50000  0.11554  0.44249  1
