CIF file written using JARVIS-Tools package.
data_BaSbCl2
_symmetry_space_group_name_H-M  'Pmm2'
_cell_length_a       3.93665
_cell_length_b       5.47686
_cell_length_c       5.98137
_cell_angle_alpha    90
_cell_angle_beta     90
_cell_angle_gamma    90

_symmetry_Int_Tables_number  25
_chemical_formula_structural  BaSbCl2
_chemical_formula_sum  BaSbCl2
_cell_volume  128.96117472958173
_cell_formula_units_Z  1
loop_
  _symmetry_equiv_pos_site_id
 _symmetry_equiv_pos_as_xyz
 1  'x, y, z'
loop_
 _atom_site_type_symbol
 _atom_site_label
 _atom_site_symmetry_multiplicity
 _atom_site_fract_x
 _atom_site_fract_y
 _atom_site_fract_z
 _atom_site_fract_occupancy
 Ba  Ba1  1  0.50000  0.50000  0.75057  1
 Cl  Cl1  1  0.00000  0.00000  0.96665  1
 Cl  Cl2  1  0.50000  0.50000  0.24460  1
 Sb  Sb1  1  0.00000  0.00000  0.53818  1
