CIF file written using JARVIS-Tools package.
data_Dy3Ga8Ir3
_symmetry_space_group_name_H-M  'Immm'
_cell_length_a       8.16189
_cell_length_b       8.16189
_cell_length_c       8.16188
_cell_angle_alpha    150.218
_cell_angle_beta     105.737
_cell_angle_gamma    82.0014

_symmetry_Int_Tables_number  71
_chemical_formula_structural  Dy3Ga8Ir3
_chemical_formula_sum  Dy3Ga8Ir3
_cell_volume  254.61668523123996
_cell_formula_units_Z  1
loop_
  _symmetry_equiv_pos_site_id
 _symmetry_equiv_pos_as_xyz
 1  'x, y, z'
loop_
 _atom_site_type_symbol
 _atom_site_label
 _atom_site_symmetry_multiplicity
 _atom_site_fract_x
 _atom_site_fract_y
 _atom_site_fract_z
 _atom_site_fract_occupancy
 Dy  Dy1  1  0.50000  0.50000  -0.00000  1
 Dy  Dy2  1  0.16896  0.16896  0.00000  1
 Dy  Dy3  1  0.83104  0.83104  -0.00000  1
 Ga  Ga1  1  0.09124  0.37543  0.71581  1
 Ga  Ga2  1  0.90876  0.62457  0.28419  1
 Ga  Ga3  1  0.65962  0.37543  0.28419  1
 Ga  Ga4  1  0.34038  0.62457  0.71581  1
 Ga  Ga5  1  0.79774  0.16975  0.62799  1
 Ga  Ga6  1  0.20226  0.83025  0.37201  1
 Ga  Ga7  1  0.54176  0.16975  0.37201  1
 Ga  Ga8  1  0.45824  0.83025  0.62799  1
 Ir  Ir1  1  -0.00000  0.50000  0.50000  1
 Ir  Ir2  1  0.77868  0.00000  0.77868  1
 Ir  Ir3  1  0.22132  -0.00000  0.22132  1
