CIF file written using JARVIS-Tools package.
data_CeLu3S6
_symmetry_space_group_name_H-M  'P2_1/m'
_cell_length_a       3.90666
_cell_length_b       10.9095
_cell_length_c       11.159
_cell_angle_alpha    70.9981
_cell_angle_beta     90
_cell_angle_gamma    90

_symmetry_Int_Tables_number  11
_chemical_formula_structural  CeLu3S6
_chemical_formula_sum  Ce2Lu6S2
_cell_volume  449.67572516909513
_cell_formula_units_Z  2
loop_
  _symmetry_equiv_pos_site_id
 _symmetry_equiv_pos_as_xyz
 1  'x, y, z'
loop_
 _atom_site_type_symbol
 _atom_site_label
 _atom_site_symmetry_multiplicity
 _atom_site_fract_x
 _atom_site_fract_y
 _atom_site_fract_z
 _atom_site_fract_occupancy
 Ce  Ce1  1  0.75000  0.55071  0.80378  1
 Ce  Ce2  1  0.25000  0.44929  0.19622  1
 Lu  Lu1  1  0.75000  0.17878  -0.00002  1
 Lu  Lu2  1  0.25000  0.82122  0.00002  1
 Lu  Lu3  1  0.75000  0.94349  0.66589  1
 Lu  Lu4  1  0.25000  0.05651  0.33411  1
 Lu  Lu5  1  0.75000  0.66064  0.41268  1
 Lu  Lu6  1  0.25000  0.33936  0.58732  1
 S  S1  1  0.75000  0.97974  0.88690  1
 S  S2  1  0.75000  0.62121  0.03583  1
 S  S3  1  0.75000  0.30111  0.74989  1
 S  S4  1  0.25000  0.69889  0.25011  1
 S  S5  1  0.25000  0.02026  0.11310  1
 S  S6  1  0.75000  0.23151  0.23008  1
 S  S7  1  0.75000  0.41753  0.40828  1
 S  S8  1  0.25000  0.58247  0.59172  1
 S  S9  1  0.75000  0.89188  0.44325  1
 S  S10  1  0.25000  0.76849  0.76992  1
 S  S11  1  0.25000  0.10812  0.55675  1
 S  S12  1  0.25000  0.37879  0.96417  1
