CIF file written using JARVIS-Tools package.
data_Nd3HoZr4O14
_symmetry_space_group_name_H-M  'R-3m'
_cell_length_a       7.54905
_cell_length_b       7.54905
_cell_length_c       7.54905
_cell_angle_alpha    60.0157
_cell_angle_beta     60.0157
_cell_angle_gamma    60.0158

_symmetry_Int_Tables_number  166
_chemical_formula_structural  Nd3HoZr4O14
_chemical_formula_sum  Nd3HoZr4O4
_cell_volume  304.31044748041626
_cell_formula_units_Z  1
loop_
  _symmetry_equiv_pos_site_id
 _symmetry_equiv_pos_as_xyz
 1  'x, y, z'
loop_
 _atom_site_type_symbol
 _atom_site_label
 _atom_site_symmetry_multiplicity
 _atom_site_fract_x
 _atom_site_fract_y
 _atom_site_fract_z
 _atom_site_fract_occupancy
 Ho  Ho1  1  0.50000  0.50000  0.50000  1
 Nd  Nd1  1  0.00000  0.50000  0.50000  1
 Nd  Nd2  1  0.50000  0.50000  0.00000  1
 Nd  Nd3  1  0.50000  -0.00000  0.50000  1
 O  O1  1  0.37976  0.37976  0.37976  1
 O  O2  1  0.62024  0.62024  0.62024  1
 O  O3  1  0.08637  0.66367  0.08637  1
 O  O4  1  0.33633  0.91363  0.91363  1
 O  O5  1  0.33612  0.33612  0.91091  1
 O  O6  1  0.91091  0.33612  0.33612  1
 O  O7  1  0.91363  0.33633  0.91363  1
 O  O8  1  0.33612  0.91091  0.33612  1
 O  O9  1  0.66367  0.08637  0.08637  1
 O  O10  1  0.91363  0.91363  0.33633  1
 O  O11  1  0.66388  0.66388  0.08909  1
 O  O12  1  0.08637  0.08637  0.66367  1
 O  O13  1  0.08909  0.66388  0.66388  1
 O  O14  1  0.66388  0.08909  0.66388  1
 Zr  Zr1  1  0.00000  0.50000  0.00000  1
 Zr  Zr2  1  0.00000  -0.00000  0.50000  1
 Zr  Zr3  1  0.50000  0.00000  0.00000  1
 Zr  Zr4  1  0.00000  0.00000  0.00000  1
