CIF file written using JARVIS-Tools package.
data_PrEr3S6
_symmetry_space_group_name_H-M  'P2_1/m'
_cell_length_a       3.9591
_cell_length_b       11.0084
_cell_length_c       11.2957
_cell_angle_alpha    71.0598
_cell_angle_beta     90
_cell_angle_gamma    90

_symmetry_Int_Tables_number  11
_chemical_formula_structural  PrEr3S6
_chemical_formula_sum  Pr2Er6S2
_cell_volume  465.6492016479897
_cell_formula_units_Z  2
loop_
  _symmetry_equiv_pos_site_id
 _symmetry_equiv_pos_as_xyz
 1  'x, y, z'
loop_
 _atom_site_type_symbol
 _atom_site_label
 _atom_site_symmetry_multiplicity
 _atom_site_fract_x
 _atom_site_fract_y
 _atom_site_fract_z
 _atom_site_fract_occupancy
 Er  Er1  1  0.75000  0.17942  0.99864  1
 Er  Er2  1  0.25000  0.82058  0.00136  1
 Er  Er3  1  0.75000  0.94277  0.66687  1
 Er  Er4  1  0.25000  0.05723  0.33313  1
 Er  Er5  1  0.75000  0.66136  0.41266  1
 Er  Er6  1  0.25000  0.33864  0.58734  1
 Pr  Pr1  1  0.75000  0.55022  0.80378  1
 Pr  Pr2  1  0.25000  0.44978  0.19622  1
 S  S1  1  0.75000  0.97958  0.88747  1
 S  S2  1  0.75000  0.62020  0.03601  1
 S  S3  1  0.75000  0.30142  0.74905  1
 S  S4  1  0.25000  0.69858  0.25095  1
 S  S5  1  0.25000  0.02042  0.11253  1
 S  S6  1  0.75000  0.23310  0.22888  1
 S  S7  1  0.75000  0.41735  0.40724  1
 S  S8  1  0.25000  0.58265  0.59276  1
 S  S9  1  0.75000  0.89314  0.44295  1
 S  S10  1  0.25000  0.76690  0.77112  1
 S  S11  1  0.25000  0.10686  0.55705  1
 S  S12  1  0.25000  0.37980  0.96399  1
