CIF file written using JARVIS-Tools package.
data_Nb6TlS8
_symmetry_space_group_name_H-M  'P-6'
_cell_length_a       9.76015
_cell_length_b       9.76015
_cell_length_c       3.39629
_cell_angle_alpha    90
_cell_angle_beta     90
_cell_angle_gamma    120

_symmetry_Int_Tables_number  174
_chemical_formula_structural  Nb6TlS8
_chemical_formula_sum  Nb6TlS8
_cell_volume  280.18743483226865
_cell_formula_units_Z  1
loop_
  _symmetry_equiv_pos_site_id
 _symmetry_equiv_pos_as_xyz
 1  'x, y, z'
loop_
 _atom_site_type_symbol
 _atom_site_label
 _atom_site_symmetry_multiplicity
 _atom_site_fract_x
 _atom_site_fract_y
 _atom_site_fract_z
 _atom_site_fract_occupancy
 Nb  Nb1  1  0.04004  0.22260  0.00000  1
 Nb  Nb2  1  0.18256  0.95996  0.00000  1
 Nb  Nb3  1  0.77740  0.81744  0.00000  1
 Nb  Nb4  1  0.28946  0.44405  0.50000  1
 Nb  Nb5  1  0.15459  0.71054  0.50000  1
 Nb  Nb6  1  0.55595  0.84541  0.50000  1
 S  S1  1  0.31916  0.27481  0.00000  1
 S  S2  1  0.95565  0.68084  0.00000  1
 S  S3  1  0.72519  0.04435  0.00000  1
 S  S4  1  0.00943  0.39230  0.50000  1
 S  S5  1  0.38287  0.99057  0.50000  1
 S  S6  1  0.60770  0.61713  0.50000  1
 S  S7  1  0.33333  0.66667  0.00000  1
 S  S8  1  0.00000  0.00000  0.50000  1
 Tl  Tl1  1  0.66667  0.33333  0.00000  1
