CIF file written using JARVIS-Tools package.
data_Nd10Si3Ge3
_symmetry_space_group_name_H-M  'P-62m'
_cell_length_a       8.79601
_cell_length_b       8.79601
_cell_length_c       6.67434
_cell_angle_alpha    90
_cell_angle_beta     90
_cell_angle_gamma    120

_symmetry_Int_Tables_number  189
_chemical_formula_structural  Nd10Si3Ge3
_chemical_formula_sum  Nd0Si3Ge3
_cell_volume  447.20948130047157
_cell_formula_units_Z  1
loop_
  _symmetry_equiv_pos_site_id
 _symmetry_equiv_pos_as_xyz
 1  'x, y, z'
loop_
 _atom_site_type_symbol
 _atom_site_label
 _atom_site_symmetry_multiplicity
 _atom_site_fract_x
 _atom_site_fract_y
 _atom_site_fract_z
 _atom_site_fract_occupancy
 Ge  Ge1  1  0.39192  0.39192  0.50000  1
 Ge  Ge2  1  0.60808  0.00000  0.50000  1
 Ge  Ge3  1  0.00000  0.60808  0.50000  1
 Nd  Nd1  1  0.66667  0.33333  0.75270  1
 Nd  Nd2  1  0.33333  0.66667  0.75270  1
 Nd  Nd3  1  0.33333  0.66667  0.24730  1
 Nd  Nd4  1  0.66667  0.33333  0.24730  1
 Nd  Nd5  1  0.75265  0.75265  0.50000  1
 Nd  Nd6  1  0.24735  0.00000  0.50000  1
 Nd  Nd7  1  0.00000  0.24735  0.50000  1
 Nd  Nd8  1  0.24604  0.24604  0.00000  1
 Nd  Nd9  1  0.75396  -0.00000  0.00000  1
 Nd  Nd10  1  -0.00000  0.75396  0.00000  1
 Si  Si1  1  0.60773  0.60773  0.00000  1
 Si  Si2  1  0.39227  -0.00000  0.00000  1
 Si  Si3  1  -0.00000  0.39227  0.00000  1
