CIF file written using JARVIS-Tools package.
data_MnF3
_symmetry_space_group_name_H-M  'Pnma'
_cell_length_a       7.45505
_cell_length_b       5.16849
_cell_length_c       5.36993
_cell_angle_alpha    89.9984
_cell_angle_beta     90
_cell_angle_gamma    90

_symmetry_Int_Tables_number  62
_chemical_formula_structural  MnF3
_chemical_formula_sum  Mn4F2
_cell_volume  206.91052280608756
_cell_formula_units_Z  4
loop_
  _symmetry_equiv_pos_site_id
 _symmetry_equiv_pos_as_xyz
 1  'x, y, z'
loop_
 _atom_site_type_symbol
 _atom_site_label
 _atom_site_symmetry_multiplicity
 _atom_site_fract_x
 _atom_site_fract_y
 _atom_site_fract_z
 _atom_site_fract_occupancy
 F  F1  1  0.25000  0.09518  0.98298  1
 F  F2  1  0.54716  0.29836  0.20529  1
 F  F3  1  0.95284  0.29836  0.20529  1
 F  F4  1  0.04726  0.79836  0.29470  1
 F  F5  1  0.45274  0.79836  0.29470  1
 F  F6  1  0.75000  0.59528  0.51685  1
 F  F7  1  0.25000  0.40472  0.48315  1
 F  F8  1  0.54726  0.20164  0.70530  1
 F  F9  1  0.95274  0.20164  0.70530  1
 F  F10  1  0.04716  0.70164  0.79471  1
 F  F11  1  0.45284  0.70164  0.79471  1
 F  F12  1  0.75000  0.90482  0.01702  1
 Mn  Mn1  1  0.00000  0.00000  0.00000  1
 Mn  Mn2  1  0.50000  0.00000  0.00000  1
 Mn  Mn3  1  0.00000  0.50000  0.50000  1
 Mn  Mn4  1  0.50000  0.50000  0.50000  1
