CIF file written using JARVIS-Tools package.
data_Li4MnCo2O7
_symmetry_space_group_name_H-M  'Cm'
_cell_length_a       2.82832
_cell_length_b       5.71811
_cell_length_c       14.3686
_cell_angle_alpha    83.5234
_cell_angle_beta     95.6411
_cell_angle_gamma    89.9607

_symmetry_Int_Tables_number  8
_chemical_formula_structural  Li4MnCo2O7
_chemical_formula_sum  Li8Mn2Co4O4
_cell_volume  229.76065641530334
_cell_formula_units_Z  2
loop_
  _symmetry_equiv_pos_site_id
 _symmetry_equiv_pos_as_xyz
 1  'x, y, z'
loop_
 _atom_site_type_symbol
 _atom_site_label
 _atom_site_symmetry_multiplicity
 _atom_site_fract_x
 _atom_site_fract_y
 _atom_site_fract_z
 _atom_site_fract_occupancy
 Co  Co1  1  0.28415  0.86264  0.56861  1
 Co  Co2  1  0.14492  0.42473  0.28962  1
 Co  Co3  1  0.42812  0.28456  0.85620  1
 Co  Co4  1  0.85663  0.57008  0.71335  1
 Li  Li1  1  0.71535  0.14629  0.43076  1
 Li  Li2  1  0.71538  0.64160  0.43086  1
 Li  Li3  1  0.99859  0.49503  0.99714  1
 Li  Li4  1  0.85424  0.07553  0.70850  1
 Li  Li5  1  0.42451  0.78314  0.84906  1
 Li  Li6  1  0.15355  0.94029  0.30694  1
 Li  Li7  1  0.57512  0.21373  0.15003  1
 Li  Li8  1  0.27797  0.35114  0.55634  1
 Mn  Mn1  1  -0.00092  -0.00265  0.99812  1
 Mn  Mn2  1  0.57257  0.71381  0.14495  1
 O  O1  1  0.93167  0.04835  0.86279  1
 O  O2  1  0.64334  0.20603  0.28595  1
 O  O3  1  0.07293  0.48327  0.14520  1
 O  O4  1  0.50204  0.76051  0.00355  1
 O  O5  1  0.20876  0.40090  0.41747  1
 O  O6  1  0.78617  0.08356  0.57313  1
 O  O7  1  0.63837  0.66863  0.27704  1
 O  O8  1  0.92530  0.51282  0.85107  1
 O  O9  1  0.06768  0.95189  0.13565  1
 O  O10  1  0.49743  0.23172  0.99526  1
 O  O11  1  0.79013  0.62580  0.58001  1
 O  O12  1  0.36149  0.33975  0.72262  1
 O  O13  1  0.35393  0.79918  0.70845  1
 O  O14  1  0.22057  0.88767  0.44129  1
