CIF file written using JARVIS-Tools package.
data_Nb5V3S20
_symmetry_space_group_name_H-M  'Cm'
_cell_length_a       9.47793
_cell_length_b       9.47793
_cell_length_c       10.1387
_cell_angle_alpha    64.551
_cell_angle_beta     64.551
_cell_angle_gamma    41.4111

_symmetry_Int_Tables_number  8
_chemical_formula_structural  Nb5V3S20
_chemical_formula_sum  Nb5V3S20
_cell_volume  535.1066578400579
_cell_formula_units_Z  1
loop_
  _symmetry_equiv_pos_site_id
 _symmetry_equiv_pos_as_xyz
 1  'x, y, z'
loop_
 _atom_site_type_symbol
 _atom_site_label
 _atom_site_symmetry_multiplicity
 _atom_site_fract_x
 _atom_site_fract_y
 _atom_site_fract_z
 _atom_site_fract_occupancy
 Nb  Nb1  1  0.33046  0.83446  0.86205  1
 Nb  Nb2  1  0.83446  0.33046  0.86205  1
 Nb  Nb3  1  0.16605  0.16605  0.14050  1
 Nb  Nb4  1  0.66631  0.66631  0.14147  1
 Nb  Nb5  1  0.80164  0.80164  0.59211  1
 S  S1  1  0.96163  0.96163  0.98079  1
 S  S2  1  0.46236  0.46236  0.97817  1
 S  S3  1  0.53649  0.03640  0.02254  1
 S  S4  1  0.03640  0.53649  0.02254  1
 S  S5  1  0.13310  0.61656  0.66208  1
 S  S6  1  0.04615  0.04615  0.41101  1
 S  S7  1  0.37864  0.37864  0.33645  1
 S  S8  1  0.88388  0.88388  0.32642  1
 S  S9  1  0.61656  0.13310  0.66208  1
 S  S10  1  0.52176  0.52176  0.74760  1
 S  S11  1  0.44207  0.95972  0.58776  1
 S  S12  1  0.47821  0.97968  0.25321  1
 S  S13  1  0.01900  0.01900  0.74995  1
 S  S14  1  0.68685  0.68685  0.86917  1
 S  S15  1  0.95972  0.44207  0.58776  1
 S  S16  1  0.80977  0.31084  0.13783  1
 S  S17  1  0.31084  0.80977  0.13783  1
 S  S18  1  0.97968  0.47821  0.25321  1
 S  S19  1  0.18941  0.18941  0.86328  1
 S  S20  1  0.54635  0.54635  0.41259  1
 V  V1  1  0.20409  0.69409  0.40365  1
 V  V2  1  0.69409  0.20409  0.40365  1
 V  V3  1  0.30403  0.30403  0.59224  1
