CIF file written using JARVIS-Tools package.
data_Li6Ti2O7
_symmetry_space_group_name_H-M  'C2/m'
_cell_length_a       5.81342
_cell_length_b       5.09042
_cell_length_c       9.87705
_cell_angle_alpha    69.2865
_cell_angle_beta     90
_cell_angle_gamma    90

_symmetry_Int_Tables_number  12
_chemical_formula_structural  Li6Ti2O7
_chemical_formula_sum  Li2Ti4O4
_cell_volume  273.39585476766564
_cell_formula_units_Z  2
loop_
  _symmetry_equiv_pos_site_id
 _symmetry_equiv_pos_as_xyz
 1  'x, y, z'
loop_
 _atom_site_type_symbol
 _atom_site_label
 _atom_site_symmetry_multiplicity
 _atom_site_fract_x
 _atom_site_fract_y
 _atom_site_fract_z
 _atom_site_fract_occupancy
 Li  Li1  1  0.77572  0.22798  0.13436  1
 Li  Li2  1  0.22428  0.77202  0.86564  1
 Li  Li3  1  0.77562  0.77204  0.86565  1
 Li  Li4  1  0.99994  0.81483  0.62872  1
 Li  Li5  1  0.27562  0.22796  0.63435  1
 Li  Li6  1  0.72428  0.22798  0.63436  1
 Li  Li7  1  0.49994  0.18517  0.87128  1
 Li  Li8  1  0.72438  0.77204  0.36565  1
 Li  Li9  1  0.00006  0.18517  0.37128  1
 Li  Li10  1  0.50006  0.81483  0.12872  1
 Li  Li11  1  0.22438  0.22796  0.13435  1
 Li  Li12  1  0.27572  0.77202  0.36564  1
 O  O1  1  0.75007  0.49998  0.25002  1
 O  O2  1  0.24993  0.50002  0.74998  1
 O  O3  1  0.99995  0.04976  0.74502  1
 O  O4  1  0.72962  -0.00001  0.50001  1
 O  O5  1  0.50000  0.50000  0.50000  1
 O  O6  1  0.27038  0.00001  0.49999  1
 O  O7  1  0.00005  0.95024  0.25498  1
 O  O8  1  0.25007  0.50002  0.24998  1
 O  O9  1  0.22962  0.00001  0.99999  1
 O  O10  1  0.77038  -0.00001  0.00001  1
 O  O11  1  0.00000  0.50000  -0.00000  1
 O  O12  1  0.49995  0.95024  0.75498  1
 O  O13  1  0.74993  0.49998  0.75002  1
 O  O14  1  0.50005  0.04976  0.24502  1
 Ti  Ti1  1  0.50008  0.26165  0.36504  1
 Ti  Ti2  1  0.49992  0.73835  0.63496  1
 Ti  Ti3  1  0.99992  0.26165  0.86504  1
 Ti  Ti4  1  0.00008  0.73835  0.13496  1
