CIF file written using JARVIS-Tools package.
data_NaScTiO4
_symmetry_space_group_name_H-M  'Pmc2_1'
_cell_length_a       3.05277
_cell_length_b       9.32253
_cell_length_c       10.946
_cell_angle_alpha    90
_cell_angle_beta     90
_cell_angle_gamma    90

_symmetry_Int_Tables_number  26
_chemical_formula_structural  NaScTiO4
_chemical_formula_sum  Na4Sc4Ti4O6
_cell_volume  311.5177390919288
_cell_formula_units_Z  4
loop_
  _symmetry_equiv_pos_site_id
 _symmetry_equiv_pos_as_xyz
 1  'x, y, z'
loop_
 _atom_site_type_symbol
 _atom_site_label
 _atom_site_symmetry_multiplicity
 _atom_site_fract_x
 _atom_site_fract_y
 _atom_site_fract_z
 _atom_site_fract_occupancy
 Na  Na1  1  0.50000  0.25226  0.90012  1
 Na  Na2  1  0.50000  0.75226  0.09988  1
 Na  Na3  1  0.00000  0.74017  0.59769  1
 Na  Na4  1  0.00000  0.24017  0.40231  1
 O  O1  1  0.50000  0.19857  0.60094  1
 O  O2  1  0.00000  0.98793  0.46667  1
 O  O3  1  0.00000  0.78495  0.91110  1
 O  O4  1  0.00000  0.28495  0.08890  1
 O  O5  1  0.50000  0.12507  0.25649  1
 O  O6  1  0.50000  0.62507  0.74351  1
 O  O7  1  0.50000  0.69857  0.39906  1
 O  O8  1  0.00000  0.39433  0.77904  1
 O  O9  1  0.50000  0.42380  0.33514  1
 O  O10  1  0.50000  0.92380  0.66486  1
 O  O11  1  0.00000  0.57323  0.18940  1
 O  O12  1  0.50000  0.02963  0.03235  1
 O  O13  1  0.00000  0.89433  0.22096  1
 O  O14  1  0.50000  0.52963  0.96765  1
 O  O15  1  0.00000  0.07323  0.81060  1
 O  O16  1  0.00000  0.48793  0.53333  1
 Sc  Sc1  1  0.50000  0.92166  0.35136  1
 Sc  Sc2  1  0.50000  0.42166  0.64864  1
 Sc  Sc3  1  0.50000  0.92515  0.85766  1
 Sc  Sc4  1  0.50000  0.42515  0.14234  1
 Ti  Ti1  1  0.00000  0.56159  0.36487  1
 Ti  Ti2  1  0.00000  0.06159  0.63513  1
 Ti  Ti3  1  0.00000  0.58167  0.86011  1
 Ti  Ti4  1  0.00000  0.08167  0.13989  1
