CIF file written using JARVIS-Tools package.
data_NaCaGaSi2O7
_symmetry_space_group_name_H-M  'P2_1'
_cell_length_a       7.74535
_cell_length_b       5.07071
_cell_length_c       7.77519
_cell_angle_alpha    88.6291
_cell_angle_beta     90
_cell_angle_gamma    90

_symmetry_Int_Tables_number  4
_chemical_formula_structural  NaCaGaSi2O7
_chemical_formula_sum  Na2Ca2Ga2Si4O4
_cell_volume  305.2787089894456
_cell_formula_units_Z  2
loop_
  _symmetry_equiv_pos_site_id
 _symmetry_equiv_pos_as_xyz
 1  'x, y, z'
loop_
 _atom_site_type_symbol
 _atom_site_label
 _atom_site_symmetry_multiplicity
 _atom_site_fract_x
 _atom_site_fract_y
 _atom_site_fract_z
 _atom_site_fract_occupancy
 Ca  Ca1  1  0.34332  0.49117  0.59513  1
 Ca  Ca2  1  0.84332  0.50883  0.40487  1
 Ga  Ga1  1  0.49965  0.00094  0.25370  1
 Ga  Ga2  1  -0.00035  0.99906  0.74630  1
 Na  Na1  1  0.66197  0.49415  0.93004  1
 Na  Na2  1  0.16197  0.50585  0.06996  1
 O  O1  1  0.85220  0.73377  0.12964  1
 O  O2  1  0.51054  0.82318  0.75897  1
 O  O3  1  0.14204  0.74413  0.41624  1
 O  O4  1  0.64204  0.25587  0.58376  1
 O  O5  1  0.57384  0.77914  0.43445  1
 O  O6  1  0.35220  0.26623  0.87036  1
 O  O7  1  0.40220  0.81764  0.07727  1
 O  O8  1  0.90220  0.18236  0.92273  1
 O  O9  1  0.32810  0.20327  0.35224  1
 O  O10  1  0.18475  0.79587  0.81932  1
 O  O11  1  0.07384  0.22086  0.56555  1
 O  O12  1  0.82810  0.79673  0.64776  1
 O  O13  1  0.68475  0.20413  0.18068  1
 O  O14  1  0.01054  0.17682  0.24103  1
 Si  Si1  1  0.64174  0.94209  0.60632  1
 Si  Si2  1  0.14174  0.05791  0.39368  1
 Si  Si3  1  0.35965  0.95205  0.88765  1
 Si  Si4  1  0.85965  0.04795  0.11235  1
