CIF file written using JARVIS-Tools package.
data_LiCo2P2O8
_symmetry_space_group_name_H-M  'Pc'
_cell_length_a       5.01568
_cell_length_b       8.37627
_cell_length_c       9.97344
_cell_angle_alpha    53.2411
_cell_angle_beta     90
_cell_angle_gamma    90

_symmetry_Int_Tables_number  7
_chemical_formula_structural  LiCo2P2O8
_chemical_formula_sum  Li2Co4P4O6
_cell_volume  335.6955537683957
_cell_formula_units_Z  2
loop_
  _symmetry_equiv_pos_site_id
 _symmetry_equiv_pos_as_xyz
 1  'x, y, z'
loop_
 _atom_site_type_symbol
 _atom_site_label
 _atom_site_symmetry_multiplicity
 _atom_site_fract_x
 _atom_site_fract_y
 _atom_site_fract_z
 _atom_site_fract_occupancy
 Co  Co1  1  0.06539  0.49405  0.24726  1
 Co  Co2  1  0.40668  -0.00278  0.75623  1
 Co  Co3  1  0.59332  -0.00278  0.25623  1
 Co  Co4  1  0.93461  0.49405  0.74726  1
 Li  Li1  1  0.40532  0.50465  0.50458  1
 Li  Li2  1  0.59468  0.50465  0.00458  1
 O  O1  1  0.86320  0.72152  0.17322  1
 O  O2  1  0.61015  0.24353  0.65713  1
 O  O3  1  0.47786  0.94827  0.10076  1
 O  O4  1  0.96426  0.43251  0.09654  1
 O  O5  1  0.04406  0.05036  0.76812  1
 O  O6  1  0.50013  0.75840  0.97441  1
 O  O7  1  0.40910  0.56809  0.28024  1
 O  O8  1  0.95594  0.05036  0.26812  1
 O  O9  1  0.38985  0.24353  0.15713  1
 O  O10  1  0.49987  0.75840  0.47441  1
 O  O11  1  0.03514  0.26623  0.95775  1
 O  O12  1  -0.03514  0.26623  0.45775  1
 O  O13  1  0.13680  0.72152  0.67322  1
 O  O14  1  0.52214  0.94827  0.60076  1
 O  O15  1  0.59090  0.56809  0.78024  1
 O  O16  1  0.03574  0.43251  0.59654  1
 P  P1  1  0.91274  0.24436  0.62046  1
 P  P2  1  0.56372  0.75334  0.13037  1
 P  P3  1  0.08726  0.24436  0.12046  1
 P  P4  1  0.43628  0.75334  0.63037  1
