CIF file written using JARVIS-Tools package.
data_Mn5Nb7N2
_symmetry_space_group_name_H-M  'Imma'
_cell_length_a       8.15472
_cell_length_b       8.23086
_cell_length_c       8.07051
_cell_angle_alpha    90
_cell_angle_beta     60.3411
_cell_angle_gamma    120.309

_symmetry_Int_Tables_number  74
_chemical_formula_structural  Mn5Nb7N2
_chemical_formula_sum  Mn0Nb4N4
_cell_volume  383.2081180678736
_cell_formula_units_Z  2
loop_
  _symmetry_equiv_pos_site_id
 _symmetry_equiv_pos_as_xyz
 1  'x, y, z'
loop_
 _atom_site_type_symbol
 _atom_site_label
 _atom_site_symmetry_multiplicity
 _atom_site_fract_x
 _atom_site_fract_y
 _atom_site_fract_z
 _atom_site_fract_occupancy
 Mn  Mn1  1  0.10671  0.88578  0.19664  1
 Mn  Mn2  1  0.50000  -0.00000  -0.00000  1
 Mn  Mn3  1  0.58453  0.79227  0.81397  1
 Mn  Mn4  1  0.58453  0.79227  0.10150  1
 Mn  Mn5  1  0.89329  0.77907  0.80336  1
 Mn  Mn6  1  0.50000  0.50000  -0.00000  1
 Mn  Mn7  1  0.41547  0.20773  0.18603  1
 Mn  Mn8  1  0.41547  0.20773  0.89850  1
 Mn  Mn9  1  0.10671  0.22093  0.19664  1
 Mn  Mn10  1  0.89329  0.11422  0.80336  1
 N  N1  1  0.50000  -0.00000  0.50000  1
 N  N2  1  0.00000  0.50000  -0.00000  1
 N  N3  1  0.50000  0.50000  0.50000  1
 N  N4  1  0.00000  0.50000  0.50000  1
 Nb  Nb1  1  0.74724  0.56416  0.18116  1
 Nb  Nb2  1  0.74724  0.56416  0.57160  1
 Nb  Nb3  1  0.14298  0.57149  0.17851  1
 Nb  Nb4  1  0.25276  0.43584  0.42840  1
 Nb  Nb5  1  0.25276  0.81692  0.42840  1
 Nb  Nb6  1  0.25276  0.43584  0.81884  1
 Nb  Nb7  1  0.25276  0.81692  0.81884  1
 Nb  Nb8  1  0.85702  0.42851  0.82149  1
 Nb  Nb9  1  0.62347  0.81174  0.43826  1
 Nb  Nb10  1  0.37653  0.18826  0.56174  1
 Nb  Nb11  1  0.00000  0.00000  0.00000  1
 Nb  Nb12  1  0.74724  0.18308  0.18116  1
 Nb  Nb13  1  0.00000  0.00000  0.50000  1
 Nb  Nb14  1  0.74724  0.18308  0.57160  1
