CIF file written using JARVIS-Tools package.
data_SiHg2O2F6
_symmetry_space_group_name_H-M  'P2_1/c'
_cell_length_a       7.37474
_cell_length_b       4.95198
_cell_length_c       9.21568
_cell_angle_alpha    58.5324
_cell_angle_beta     90
_cell_angle_gamma    90

_symmetry_Int_Tables_number  14
_chemical_formula_structural  SiHg2O2F6
_chemical_formula_sum  Si2Hg4O4F2
_cell_volume  287.05800924032735
_cell_formula_units_Z  2
loop_
  _symmetry_equiv_pos_site_id
 _symmetry_equiv_pos_as_xyz
 1  'x, y, z'
loop_
 _atom_site_type_symbol
 _atom_site_label
 _atom_site_symmetry_multiplicity
 _atom_site_fract_x
 _atom_site_fract_y
 _atom_site_fract_z
 _atom_site_fract_occupancy
 F  F1  1  0.35594  0.03080  0.84424  1
 F  F2  1  0.14406  0.03080  0.34424  1
 F  F3  1  0.12234  0.28372  0.50677  1
 F  F4  1  0.37766  0.28372  0.00677  1
 F  F5  1  0.87766  0.71628  0.49323  1
 F  F6  1  0.62234  0.71628  0.99323  1
 F  F7  1  0.63931  0.28432  0.84488  1
 F  F8  1  0.86069  0.28432  0.34488  1
 F  F9  1  0.36069  0.71568  0.15512  1
 F  F10  1  0.85594  0.96920  0.65576  1
 F  F11  1  0.64406  0.96920  0.15576  1
 F  F12  1  0.13931  0.71568  0.65512  1
 Hg  Hg1  1  0.00143  0.81205  0.18711  1
 Hg  Hg2  1  0.50143  0.18795  0.31289  1
 Hg  Hg3  1  -0.00143  0.18795  0.81289  1
 Hg  Hg4  1  0.49857  0.81205  0.68711  1
 O  O1  1  0.44366  0.60385  0.49936  1
 O  O2  1  0.94366  0.39615  0.00064  1
 O  O3  1  0.55634  0.39615  0.50064  1
 O  O4  1  0.05634  0.60385  -0.00064  1
 Si  Si1  1  0.50000  0.00000  0.00000  1
 Si  Si2  1  0.00000  -0.00000  0.50000  1
