CIF file written using JARVIS-Tools package.
data_NaTi6Se8
_symmetry_space_group_name_H-M  'P-3'
_cell_length_a       9.8094
_cell_length_b       9.8094
_cell_length_c       3.63141
_cell_angle_alpha    90
_cell_angle_beta     90
_cell_angle_gamma    120

_symmetry_Int_Tables_number  147
_chemical_formula_structural  NaTi6Se8
_chemical_formula_sum  NaTi6Se8
_cell_volume  302.6156043425774
_cell_formula_units_Z  1
loop_
  _symmetry_equiv_pos_site_id
 _symmetry_equiv_pos_as_xyz
 1  'x, y, z'
loop_
 _atom_site_type_symbol
 _atom_site_label
 _atom_site_symmetry_multiplicity
 _atom_site_fract_x
 _atom_site_fract_y
 _atom_site_fract_z
 _atom_site_fract_occupancy
 Na  Na1  1  0.00000  0.00000  0.50000  1
 Se  Se1  1  0.66667  0.33333  0.75049  1
 Se  Se2  1  0.33333  0.66667  0.24951  1
 Se  Se3  1  0.29565  0.34345  0.75120  1
 Se  Se4  1  0.65655  0.95219  0.75120  1
 Se  Se5  1  0.04781  0.70435  0.75120  1
 Se  Se6  1  0.70435  0.65655  0.24880  1
 Se  Se7  1  0.34345  0.04781  0.24880  1
 Se  Se8  1  0.95219  0.29565  0.24880  1
 Ti  Ti1  1  0.12850  0.49189  0.74929  1
 Ti  Ti2  1  0.50811  0.63662  0.74929  1
 Ti  Ti3  1  0.36338  0.87150  0.74929  1
 Ti  Ti4  1  0.87150  0.50811  0.25071  1
 Ti  Ti5  1  0.49189  0.36338  0.25071  1
 Ti  Ti6  1  0.63662  0.12850  0.25071  1
