CIF file written using JARVIS-Tools package.
data_MnFe4Si3
_symmetry_space_group_name_H-M  'Amm2'
_cell_length_a       6.65603
_cell_length_b       6.65603
_cell_length_c       4.66749
_cell_angle_alpha    90
_cell_angle_beta     90
_cell_angle_gamma    119.777

_symmetry_Int_Tables_number  38
_chemical_formula_structural  MnFe4Si3
_chemical_formula_sum  Mn2Fe8Si6
_cell_volume  179.48058199117915
_cell_formula_units_Z  2
loop_
  _symmetry_equiv_pos_site_id
 _symmetry_equiv_pos_as_xyz
 1  'x, y, z'
loop_
 _atom_site_type_symbol
 _atom_site_label
 _atom_site_symmetry_multiplicity
 _atom_site_fract_x
 _atom_site_fract_y
 _atom_site_fract_z
 _atom_site_fract_occupancy
 Fe  Fe1  1  0.33210  0.66588  0.25007  1
 Fe  Fe2  1  0.66588  0.33210  0.25007  1
 Fe  Fe3  1  0.66588  0.33210  0.74993  1
 Fe  Fe4  1  0.33210  0.66588  0.74993  1
 Fe  Fe5  1  0.76593  0.76593  0.00000  1
 Fe  Fe6  1  0.99854  0.76112  0.50000  1
 Fe  Fe7  1  0.76112  0.99854  0.50000  1
 Fe  Fe8  1  0.24149  0.24149  0.50000  1
 Mn  Mn1  1  0.00178  0.23495  0.00000  1
 Mn  Mn2  1  0.23495  0.00178  0.00000  1
 Si  Si1  1  0.99902  0.60299  0.00000  1
 Si  Si2  1  0.60299  0.99902  0.00000  1
 Si  Si3  1  0.39864  0.39864  0.00000  1
 Si  Si4  1  -0.00058  0.39354  0.50000  1
 Si  Si5  1  0.39354  -0.00058  0.50000  1
 Si  Si6  1  0.60532  0.60532  0.50000  1
