CIF file written using JARVIS-Tools package.
data_MgAg2P2S6
_symmetry_space_group_name_H-M  'C2/c'
_cell_length_a       6.35374
_cell_length_b       6.35374
_cell_length_c       13.467
_cell_angle_alpha    85.6177
_cell_angle_beta     85.6177
_cell_angle_gamma    119.94

_symmetry_Int_Tables_number  15
_chemical_formula_structural  MgAg2P2S6
_chemical_formula_sum  Mg2Ag4P4S2
_cell_volume  465.5865036479241
_cell_formula_units_Z  2
loop_
  _symmetry_equiv_pos_site_id
 _symmetry_equiv_pos_as_xyz
 1  'x, y, z'
loop_
 _atom_site_type_symbol
 _atom_site_label
 _atom_site_symmetry_multiplicity
 _atom_site_fract_x
 _atom_site_fract_y
 _atom_site_fract_z
 _atom_site_fract_occupancy
 Ag  Ag1  1  0.04229  0.87569  0.36472  1
 Ag  Ag2  1  0.95771  0.12431  0.63528  1
 Ag  Ag3  1  0.12431  0.95771  0.13528  1
 Ag  Ag4  1  0.87569  0.04229  0.86472  1
 Mg  Mg1  1  0.41842  0.58158  0.25000  1
 Mg  Mg2  1  0.58158  0.41842  0.75000  1
 P  P1  1  0.21963  0.71999  0.83529  1
 P  P2  1  0.78037  0.28001  0.16471  1
 P  P3  1  0.28001  0.78037  0.66471  1
 P  P4  1  0.71999  0.21963  0.33529  1
 S  S1  1  0.42889  0.87074  0.37829  1
 S  S2  1  0.51954  0.35374  0.11912  1
 S  S3  1  0.35374  0.51954  0.61912  1
 S  S4  1  0.64626  0.48046  0.38088  1
 S  S5  1  0.48046  0.64626  0.88088  1
 S  S6  1  0.87074  0.42889  0.87829  1
 S  S7  1  0.73787  0.96109  0.11783  1
 S  S8  1  0.26213  0.03891  0.88217  1
 S  S9  1  0.12926  0.57111  0.12171  1
 S  S10  1  0.03891  0.26213  0.38217  1
 S  S11  1  0.96109  0.73787  0.61783  1
 S  S12  1  0.57111  0.12926  0.62171  1
