CIF file written using JARVIS-Tools package.
data_Mo3Se2S2
_symmetry_space_group_name_H-M  'P1'
_cell_length_a       6.58023
_cell_length_b       6.56111
_cell_length_c       6.58866
_cell_angle_alpha    92.3579
_cell_angle_beta     91.9282
_cell_angle_gamma    93.21

_symmetry_Int_Tables_number  1
_chemical_formula_structural  Mo3Se2S2
_chemical_formula_sum  Mo6Se4S4
_cell_volume  283.58562524391897
_cell_formula_units_Z  2
loop_
  _symmetry_equiv_pos_site_id
 _symmetry_equiv_pos_as_xyz
 1  'x, y, z'
loop_
 _atom_site_type_symbol
 _atom_site_label
 _atom_site_symmetry_multiplicity
 _atom_site_fract_x
 _atom_site_fract_y
 _atom_site_fract_z
 _atom_site_fract_occupancy
 Mo  Mo1  1  0.58939  0.45855  0.77362  1
 Mo  Mo2  1  0.45274  0.77431  0.59003  1
 Mo  Mo3  1  0.79073  0.60302  0.44764  1
 Mo  Mo4  1  0.41161  0.54612  0.22075  1
 Mo  Mo5  1  0.54369  0.22132  0.40973  1
 Mo  Mo6  1  0.20667  0.40741  0.55004  1
 S  S1  1  0.85857  0.27971  0.60653  1
 S  S2  1  0.26971  0.60748  0.87045  1
 S  S3  1  0.61776  0.86927  0.27244  1
 S  S4  1  0.14022  0.72591  0.38549  1
 Se  Se1  1  0.75254  0.37969  0.12136  1
 Se  Se2  1  0.36581  0.12424  0.75036  1
 Se  Se3  1  0.80020  0.80566  0.78716  1
 Se  Se4  1  0.20036  0.19731  0.21438  1
