CIF file written using JARVIS-Tools package.
data_LiMg17Al11
_symmetry_space_group_name_H-M  'Cm'
_cell_length_a       9.0801
_cell_length_b       9.0801
_cell_length_c       9.09886
_cell_angle_alpha    70.435
_cell_angle_beta     70.435
_cell_angle_gamma    109.168

_symmetry_Int_Tables_number  8
_chemical_formula_structural  LiMg17Al11
_chemical_formula_sum  LiMg7Al
_cell_volume  578.3063979400018
_cell_formula_units_Z  1
loop_
  _symmetry_equiv_pos_site_id
 _symmetry_equiv_pos_as_xyz
 1  'x, y, z'
loop_
 _atom_site_type_symbol
 _atom_site_label
 _atom_site_symmetry_multiplicity
 _atom_site_fract_x
 _atom_site_fract_y
 _atom_site_fract_z
 _atom_site_fract_occupancy
 Al  Al1  1  0.63141  0.81272  0.00308  1
 Al  Al2  1  0.18060  0.36562  0.63110  1
 Al  Al3  1  0.19021  0.19021  0.17540  1
 Al  Al4  1  0.36562  0.18060  0.63110  1
 Al  Al5  1  0.00235  0.81719  0.36843  1
 Al  Al6  1  0.81272  0.63141  0.00308  1
 Al  Al7  1  0.00044  0.63510  0.18749  1
 Al  Al8  1  0.63510  0.00044  0.18749  1
 Al  Al9  1  0.81816  0.18374  0.81348  1
 Al  Al10  1  0.81719  0.00235  0.36843  1
 Al  Al11  1  0.18374  0.81816  0.81348  1
 Li  Li1  1  0.36611  0.36611  0.81509  1
 Mg  Mg1  1  0.39795  0.39795  0.28482  1
 Mg  Mg2  1  0.31563  0.60165  -0.00020  1
 Mg  Mg3  1  0.39446  0.70966  0.60572  1
 Mg  Mg4  1  0.00190  0.31776  0.39968  1
 Mg  Mg5  1  0.28722  0.68622  0.31476  1
 Mg  Mg6  1  0.60143  -0.00152  0.68491  1
 Mg  Mg7  1  -0.00152  0.60143  0.68491  1
 Mg  Mg8  1  0.60165  0.31563  -0.00020  1
 Mg  Mg9  1  0.68622  0.28722  0.31476  1
 Mg  Mg10  1  0.00404  0.34286  0.99690  1
 Mg  Mg11  1  0.31776  0.00190  0.39968  1
 Mg  Mg12  1  0.99612  0.99612  0.65560  1
 Mg  Mg13  1  0.68107  0.68107  0.71331  1
 Mg  Mg14  1  0.70966  0.39446  0.60572  1
 Mg  Mg15  1  0.65669  0.65669  0.34747  1
 Mg  Mg16  1  0.34286  0.00404  0.99690  1
 Mg  Mg17  1  0.00322  0.00322  0.99763  1
