CIF file written using JARVIS-Tools package.
data_La5Pb3S
_symmetry_space_group_name_H-M  'P6_3/mcm'
_cell_length_a       9.66455
_cell_length_b       9.66455
_cell_length_c       7.07706
_cell_angle_alpha    90
_cell_angle_beta     90
_cell_angle_gamma    120

_symmetry_Int_Tables_number  193
_chemical_formula_structural  La5Pb3S
_chemical_formula_sum  La0Pb6S2
_cell_volume  572.4620885317464
_cell_formula_units_Z  2
loop_
  _symmetry_equiv_pos_site_id
 _symmetry_equiv_pos_as_xyz
 1  'x, y, z'
loop_
 _atom_site_type_symbol
 _atom_site_label
 _atom_site_symmetry_multiplicity
 _atom_site_fract_x
 _atom_site_fract_y
 _atom_site_fract_z
 _atom_site_fract_occupancy
 La  La1  1  0.75616  0.75616  0.75000  1
 La  La2  1  0.75616  -0.00000  0.25000  1
 La  La3  1  0.00000  0.24384  0.75000  1
 La  La4  1  0.24384  0.24384  0.25000  1
 La  La5  1  0.33333  0.66667  0.50000  1
 La  La6  1  0.24384  0.00000  0.75000  1
 La  La7  1  0.66667  0.33333  0.00000  1
 La  La8  1  0.33333  0.66667  0.00000  1
 La  La9  1  0.66667  0.33333  0.50000  1
 La  La10  1  -0.00000  0.75616  0.25000  1
 Pb  Pb1  1  0.39530  0.39530  0.75000  1
 Pb  Pb2  1  0.60470  0.00000  0.75000  1
 Pb  Pb3  1  0.00000  0.60470  0.75000  1
 Pb  Pb4  1  0.60470  0.60470  0.25000  1
 Pb  Pb5  1  0.39530  -0.00000  0.25000  1
 Pb  Pb6  1  -0.00000  0.39530  0.25000  1
 S  S1  1  0.00000  0.00000  0.00000  1
 S  S2  1  0.00000  0.00000  0.50000  1
