CIF file written using JARVIS-Tools package.
data_Li2OsO6
_symmetry_space_group_name_H-M  'C2/c'
_cell_length_a       6.56101
_cell_length_b       6.56101
_cell_length_c       5.14034
_cell_angle_alpha    76.5152
_cell_angle_beta     76.5152
_cell_angle_gamma    86.3385

_symmetry_Int_Tables_number  15
_chemical_formula_structural  Li2OsO6
_chemical_formula_sum  Li4Os2O2
_cell_volume  209.2330319868578
_cell_formula_units_Z  2
loop_
  _symmetry_equiv_pos_site_id
 _symmetry_equiv_pos_as_xyz
 1  'x, y, z'
loop_
 _atom_site_type_symbol
 _atom_site_label
 _atom_site_symmetry_multiplicity
 _atom_site_fract_x
 _atom_site_fract_y
 _atom_site_fract_z
 _atom_site_fract_occupancy
 Li  Li1  1  0.00000  0.50000  0.50000  1
 Li  Li2  1  0.50000  -0.00000  -0.00000  1
 Li  Li3  1  0.45943  0.54057  0.25000  1
 Li  Li4  1  0.54057  0.45943  0.75000  1
 O  O1  1  0.14904  0.64352  0.10123  1
 O  O2  1  0.35648  0.85096  0.39877  1
 O  O3  1  0.73021  0.47430  0.37892  1
 O  O4  1  0.64352  0.14904  0.60123  1
 O  O5  1  0.85096  0.35648  0.89877  1
 O  O6  1  0.21088  0.05678  0.79536  1
 O  O7  1  0.78912  0.94322  0.20464  1
 O  O8  1  0.94322  0.78912  0.70464  1
 O  O9  1  0.26979  0.52570  0.62108  1
 O  O10  1  0.47430  0.73021  0.87892  1
 O  O11  1  0.05678  0.21088  0.29536  1
 O  O12  1  0.52570  0.26979  0.12108  1
 Os  Os1  1  0.19779  0.80221  0.75000  1
 Os  Os2  1  0.80221  0.19779  0.25000  1
