CIF file written using JARVIS-Tools package.
data_MgCd3C4O12
_symmetry_space_group_name_H-M  'R-3'
_cell_length_a       10.9963
_cell_length_b       10.9963
_cell_length_c       10.9963
_cell_angle_alpha    25.7871
_cell_angle_beta     25.7871
_cell_angle_gamma    25.7871

_symmetry_Int_Tables_number  148
_chemical_formula_structural  MgCd3C4O12
_chemical_formula_sum  MgCd3C4O2
_cell_volume  221.60100256286754
_cell_formula_units_Z  1
loop_
  _symmetry_equiv_pos_site_id
 _symmetry_equiv_pos_as_xyz
 1  'x, y, z'
loop_
 _atom_site_type_symbol
 _atom_site_label
 _atom_site_symmetry_multiplicity
 _atom_site_fract_x
 _atom_site_fract_y
 _atom_site_fract_z
 _atom_site_fract_occupancy
 C  C1  1  0.87083  0.87083  0.87083  1
 C  C2  1  0.37673  0.37673  0.37673  1
 C  C3  1  0.12917  0.12917  0.12917  1
 C  C4  1  0.62327  0.62327  0.62327  1
 Cd  Cd1  1  0.00000  0.00000  0.00000  1
 Cd  Cd2  1  0.75473  0.75473  0.75473  1
 Cd  Cd3  1  0.24527  0.24527  0.24527  1
 Mg  Mg1  1  0.50000  0.50000  0.50000  1
 O  O1  1  0.83590  0.15147  0.62570  1
 O  O2  1  0.16410  0.84853  0.37430  1
 O  O3  1  0.62570  0.83590  0.15147  1
 O  O4  1  0.11011  0.38147  0.63854  1
 O  O5  1  0.38147  0.63854  0.11011  1
 O  O6  1  0.84853  0.37430  0.16410  1
 O  O7  1  0.37430  0.16410  0.84853  1
 O  O8  1  0.88989  0.61853  0.36146  1
 O  O9  1  0.15147  0.62570  0.83590  1
 O  O10  1  0.36146  0.88989  0.61853  1
 O  O11  1  0.63854  0.11011  0.38147  1
 O  O12  1  0.61853  0.36146  0.88989  1
