CIF file written using JARVIS-Tools package.
data_Li2La3NdSb2O12
_symmetry_space_group_name_H-M  'P1'
_cell_length_a       5.61463
_cell_length_b       5.79032
_cell_length_c       7.97642
_cell_angle_alpha    90.0022
_cell_angle_beta     90.4747
_cell_angle_gamma    90.1478

_symmetry_Int_Tables_number  1
_chemical_formula_structural  Li2La3NdSb2O12
_chemical_formula_sum  Li2La3NdSb2O2
_cell_volume  259.30765931587024
_cell_formula_units_Z  1
loop_
  _symmetry_equiv_pos_site_id
 _symmetry_equiv_pos_as_xyz
 1  'x, y, z'
loop_
 _atom_site_type_symbol
 _atom_site_label
 _atom_site_symmetry_multiplicity
 _atom_site_fract_x
 _atom_site_fract_y
 _atom_site_fract_z
 _atom_site_fract_occupancy
 La  La1  1  0.51249  0.55144  0.74936  1
 La  La2  1  0.98888  0.04908  0.74974  1
 La  La3  1  0.48712  0.44880  0.25137  1
 Li  Li1  1  0.50293  0.99939  0.49776  1
 Li  Li2  1  0.99761  0.49705  0.00201  1
 Nd  Nd1  1  0.01513  0.94211  0.24759  1
 O  O1  1  0.90734  0.53345  0.25599  1
 O  O2  1  0.18646  0.21162  0.44671  1
 O  O3  1  0.09165  0.47051  0.74164  1
 O  O4  1  0.60213  0.02979  0.24327  1
 O  O5  1  0.40959  0.97204  0.75843  1
 O  O6  1  0.21224  0.19268  0.05047  1
 O  O7  1  0.80707  0.78537  0.54926  1
 O  O8  1  0.78981  0.80668  0.95564  1
 O  O9  1  0.70801  0.30692  0.54551  1
 O  O10  1  0.30571  0.71755  0.05336  1
 O  O11  1  0.28437  0.69754  0.45190  1
 O  O12  1  0.69147  0.28800  0.94972  1
 Sb  Sb1  1  0.50187  0.00101  0.00186  1
 Sb  Sb2  1  0.99814  0.49895  0.49843  1
