CIF file written using JARVIS-Tools package.
data_PrP12Os4
_symmetry_space_group_name_H-M  'Im-3'
_cell_length_a       7.07744
_cell_length_b       7.07745
_cell_length_c       7.07744
_cell_angle_alpha    109.471
_cell_angle_beta     109.471
_cell_angle_gamma    109.471

_symmetry_Int_Tables_number  204
_chemical_formula_structural  PrP12Os4
_chemical_formula_sum  PrP2Os4
_cell_volume  272.9020474749161
_cell_formula_units_Z  1
loop_
  _symmetry_equiv_pos_site_id
 _symmetry_equiv_pos_as_xyz
 1  'x, y, z'
loop_
 _atom_site_type_symbol
 _atom_site_label
 _atom_site_symmetry_multiplicity
 _atom_site_fract_x
 _atom_site_fract_y
 _atom_site_fract_z
 _atom_site_fract_occupancy
 Os  Os1  1  0.50000  0.50000  0.50000  1
 Os  Os2  1  0.00000  0.00000  0.50000  1
 Os  Os3  1  -0.00000  0.50000  0.00000  1
 Os  Os4  1  0.50000  0.00000  0.00000  1
 P  P1  1  0.78675  0.14319  0.64356  1
 P  P2  1  0.35644  0.21325  0.85681  1
 P  P3  1  0.64356  0.78675  0.14319  1
 P  P4  1  0.64356  0.50037  0.85681  1
 P  P5  1  0.35644  0.49963  0.14319  1
 P  P6  1  0.49963  0.14319  0.35644  1
 P  P7  1  0.50037  0.85681  0.64356  1
 P  P8  1  0.85681  0.35644  0.21325  1
 P  P9  1  0.14319  0.64356  0.78675  1
 P  P10  1  0.85681  0.64356  0.50037  1
 P  P11  1  0.14319  0.35644  0.49963  1
 P  P12  1  0.21325  0.85681  0.35644  1
 Pr  Pr1  1  0.00000  0.00000  0.00000  1
