CIF file written using JARVIS-Tools package.
data_Tb3Os
_symmetry_space_group_name_H-M  'Pnma'
_cell_length_a       6.32303
_cell_length_b       7.37146
_cell_length_c       9.08608
_cell_angle_alpha    90
_cell_angle_beta     90
_cell_angle_gamma    90

_symmetry_Int_Tables_number  62
_chemical_formula_structural  Tb3Os
_chemical_formula_sum  Tb2Os4
_cell_volume  423.5020314269104
_cell_formula_units_Z  4
loop_
  _symmetry_equiv_pos_site_id
 _symmetry_equiv_pos_as_xyz
 1  'x, y, z'
loop_
 _atom_site_type_symbol
 _atom_site_label
 _atom_site_symmetry_multiplicity
 _atom_site_fract_x
 _atom_site_fract_y
 _atom_site_fract_z
 _atom_site_fract_occupancy
 Os  Os1  1  0.04264  0.88374  0.25000  1
 Os  Os2  1  0.45736  0.38374  0.25000  1
 Os  Os3  1  0.95736  0.11626  0.75000  1
 Os  Os4  1  0.54264  0.61626  0.75000  1
 Tb  Tb1  1  0.33344  0.67647  0.06249  1
 Tb  Tb2  1  0.16656  0.17647  0.43751  1
 Tb  Tb3  1  0.66656  0.32353  0.56249  1
 Tb  Tb4  1  0.83344  0.82353  0.93751  1
 Tb  Tb5  1  0.66656  0.32353  0.93751  1
 Tb  Tb6  1  0.83344  0.82353  0.56249  1
 Tb  Tb7  1  0.33344  0.67647  0.43751  1
 Tb  Tb8  1  0.16656  0.17647  0.06249  1
 Tb  Tb9  1  0.87065  0.53737  0.25000  1
 Tb  Tb10  1  0.62935  0.03737  0.25000  1
 Tb  Tb11  1  0.12935  0.46263  0.75000  1
 Tb  Tb12  1  0.37065  0.96263  0.75000  1
