CIF file written using JARVIS-Tools package.
data_BaSe3
_symmetry_space_group_name_H-M  'Cm'
_cell_length_a       8.56423
_cell_length_b       6.85126
_cell_length_c       5.3218
_cell_angle_alpha    140.753
_cell_angle_beta     53.298
_cell_angle_gamma    141.624

_symmetry_Int_Tables_number  8
_chemical_formula_structural  BaSe3
_chemical_formula_sum  BaSe3
_cell_volume  122.61099209423925
_cell_formula_units_Z  1
loop_
  _symmetry_equiv_pos_site_id
 _symmetry_equiv_pos_as_xyz
 1  'x, y, z'
loop_
 _atom_site_type_symbol
 _atom_site_label
 _atom_site_symmetry_multiplicity
 _atom_site_fract_x
 _atom_site_fract_y
 _atom_site_fract_z
 _atom_site_fract_occupancy
 Ba  Ba1  1  0.68843  0.07691  0.45624  1
 Se  Se1  1  0.18592  0.07382  -0.02937  1
 Se  Se2  1  0.67335  0.56149  0.45844  1
 Se  Se3  1  0.12027  0.15082  0.66684  1
