CIF file written using JARVIS-Tools package.
data_KFe4Si3O12
_symmetry_space_group_name_H-M  'P1'
_cell_length_a       5.23152
_cell_length_b       5.25725
_cell_length_c       10.0968
_cell_angle_alpha    94.0775
_cell_angle_beta     94.5717
_cell_angle_gamma    120.32

_symmetry_Int_Tables_number  1
_chemical_formula_structural  KFe4Si3O12
_chemical_formula_sum  KFe4Si3O2
_cell_volume  236.94173405065933
_cell_formula_units_Z  1
loop_
  _symmetry_equiv_pos_site_id
 _symmetry_equiv_pos_as_xyz
 1  'x, y, z'
loop_
 _atom_site_type_symbol
 _atom_site_label
 _atom_site_symmetry_multiplicity
 _atom_site_fract_x
 _atom_site_fract_y
 _atom_site_fract_z
 _atom_site_fract_occupancy
 Fe  Fe1  1  0.99015  0.98642  0.49783  1
 Fe  Fe2  1  0.65710  0.34529  0.49616  1
 Fe  Fe3  1  0.38087  0.66078  0.51043  1
 Fe  Fe4  1  0.09112  0.76629  0.77751  1
 K  K1  1  0.50171  0.51224  0.00841  1
 O  O1  1  0.05697  0.08595  0.84156  1
 O  O2  1  0.94728  0.28188  0.39186  1
 O  O3  1  0.81370  0.42220  0.84063  1
 O  O4  1  0.47182  0.83505  0.82840  1
 O  O5  1  0.05318  0.06337  0.16626  1
 O  O6  1  0.54801  0.05387  0.16409  1
 O  O7  1  0.01084  0.68920  0.58695  1
 O  O8  1  0.65235  0.63136  0.39049  1
 O  O9  1  0.04626  0.55960  0.16899  1
 O  O10  1  0.72716  0.06031  0.61041  1
 O  O11  1  0.35183  0.32075  0.58813  1
 O  O12  1  0.29505  0.96694  0.39172  1
 Si  Si1  1  0.23440  0.91168  0.22847  1
 Si  Si2  1  0.89999  0.24173  0.22886  1
 Si  Si3  1  0.77019  0.10509  0.78284  1
