CIF file written using JARVIS-Tools package.
data_Ba3Se
_symmetry_space_group_name_H-M  'Amm2'
_cell_length_a       4.38888
_cell_length_b       9.39724
_cell_length_c       9.39593
_cell_angle_alpha    29.91
_cell_angle_beta     90.0136
_cell_angle_gamma    90.0119

_symmetry_Int_Tables_number  38
_chemical_formula_structural  Ba3Se
_chemical_formula_sum  Ba3Se
_cell_volume  193.23218578809013
_cell_formula_units_Z  1
loop_
  _symmetry_equiv_pos_site_id
 _symmetry_equiv_pos_as_xyz
 1  'x, y, z'
loop_
 _atom_site_type_symbol
 _atom_site_label
 _atom_site_symmetry_multiplicity
 _atom_site_fract_x
 _atom_site_fract_y
 _atom_site_fract_z
 _atom_site_fract_occupancy
 Ba  Ba1  1  0.90820  0.73456  0.05301  1
 Ba  Ba2  1  0.40819  0.06994  0.38777  1
 Ba  Ba3  1  0.40819  0.39444  0.71409  1
 Se  Se1  1  0.90817  0.91753  0.23730  1
