CIF file written using JARVIS-Tools package.
data_La3YSc4O12
_symmetry_space_group_name_H-M  'Pm'
_cell_length_a       8.06865
_cell_length_b       5.62546
_cell_length_c       5.80707
_cell_angle_alpha    89.9403
_cell_angle_beta     90
_cell_angle_gamma    90

_symmetry_Int_Tables_number  6
_chemical_formula_structural  La3YSc4O12
_chemical_formula_sum  La3YSc4O2
_cell_volume  263.58218896887786
_cell_formula_units_Z  1
loop_
  _symmetry_equiv_pos_site_id
 _symmetry_equiv_pos_as_xyz
 1  'x, y, z'
loop_
 _atom_site_type_symbol
 _atom_site_label
 _atom_site_symmetry_multiplicity
 _atom_site_fract_x
 _atom_site_fract_y
 _atom_site_fract_z
 _atom_site_fract_occupancy
 La  La1  1  0.00000  0.99019  0.04887  1
 La  La2  1  0.50000  0.48947  0.45598  1
 La  La3  1  0.50000  0.01403  0.94894  1
 O  O1  1  0.00000  0.39906  0.94544  1
 O  O2  1  0.70076  0.19420  0.19708  1
 O  O3  1  0.50000  0.59899  0.03715  1
 O  O4  1  0.50000  0.90317  0.52918  1
 O  O5  1  0.00000  0.13013  0.46511  1
 O  O6  1  0.69601  0.29720  0.70423  1
 O  O7  1  0.80812  0.79327  0.79298  1
 O  O8  1  0.19188  0.79327  0.79298  1
 O  O9  1  0.29924  0.19420  0.19708  1
 O  O10  1  0.81448  0.69224  0.30785  1
 O  O11  1  0.18552  0.69224  0.30785  1
 O  O12  1  0.30399  0.29720  0.70423  1
 Sc  Sc1  1  0.24555  0.00227  0.50004  1
 Sc  Sc2  1  0.75326  0.49879  0.00248  1
 Sc  Sc3  1  0.75445  0.00227  0.50004  1
 Sc  Sc4  1  0.24674  0.49879  0.00248  1
 Y  Y1  1  0.00000  0.51904  0.55999  1
