CIF file written using JARVIS-Tools package.
data_BaSe
_symmetry_space_group_name_H-M  'F-43m'
_cell_length_a       5.17536
_cell_length_b       5.16769
_cell_length_c       5.17461
_cell_angle_alpha    59.9927
_cell_angle_beta     90.0755
_cell_angle_gamma    59.9934

_symmetry_Int_Tables_number  216
_chemical_formula_structural  BaSe
_chemical_formula_sum  BaSe
_cell_volume  97.77380168255435
_cell_formula_units_Z  1
loop_
  _symmetry_equiv_pos_site_id
 _symmetry_equiv_pos_as_xyz
 1  'x, y, z'
loop_
 _atom_site_type_symbol
 _atom_site_label
 _atom_site_symmetry_multiplicity
 _atom_site_fract_x
 _atom_site_fract_y
 _atom_site_fract_z
 _atom_site_fract_occupancy
 Ba  Ba1  1  0.92756  0.97412  0.99928  1
 Se  Se1  1  0.67752  0.47416  0.24917  1
