CIF file written using JARVIS-Tools package.
data_BaSe2
_symmetry_space_group_name_H-M  'C2/m'
_cell_length_a       5.20814
_cell_length_b       4.48919
_cell_length_c       6.49409
_cell_angle_alpha    43.6732
_cell_angle_beta     65.3827
_cell_angle_gamma    72.464

_symmetry_Int_Tables_number  12
_chemical_formula_structural  BaSe2
_chemical_formula_sum  BaSe2
_cell_volume  95.31864890910535
_cell_formula_units_Z  1
loop_
  _symmetry_equiv_pos_site_id
 _symmetry_equiv_pos_as_xyz
 1  'x, y, z'
loop_
 _atom_site_type_symbol
 _atom_site_label
 _atom_site_symmetry_multiplicity
 _atom_site_fract_x
 _atom_site_fract_y
 _atom_site_fract_z
 _atom_site_fract_occupancy
 Ba  Ba1  1  0.19602  0.00411  0.06336  1
 Se  Se1  1  0.89985  0.00414  0.62277  1
 Se  Se2  1  0.49219  0.00408  0.50395  1
