CIF file written using JARVIS-Tools package.
data_BeVBr
_symmetry_space_group_name_H-M  'Pm'
_cell_length_a       4.50961
_cell_length_b       4.79211
_cell_length_c       2.93561
_cell_angle_alpha    90
_cell_angle_beta     90
_cell_angle_gamma    76.0362

_symmetry_Int_Tables_number  6
_chemical_formula_structural  BeVBr
_chemical_formula_sum  BeVBr
_cell_volume  61.56528940362817
_cell_formula_units_Z  1
loop_
  _symmetry_equiv_pos_site_id
 _symmetry_equiv_pos_as_xyz
 1  'x, y, z'
loop_
 _atom_site_type_symbol
 _atom_site_label
 _atom_site_symmetry_multiplicity
 _atom_site_fract_x
 _atom_site_fract_y
 _atom_site_fract_z
 _atom_site_fract_occupancy
 Be  Be1  1  0.39415  0.00254  0.00000  1
 Br  Br1  1  -0.05618  0.38524  0.00000  1
 V  V1  1  -0.08181  -0.11575  0.00000  1
