CIF file written using JARVIS-Tools package.
data_La6Zn4Pd13
_symmetry_space_group_name_H-M  'Im-3m'
_cell_length_a       8.45367
_cell_length_b       8.45368
_cell_length_c       8.45367
_cell_angle_alpha    109.471
_cell_angle_beta     109.471
_cell_angle_gamma    109.471

_symmetry_Int_Tables_number  229
_chemical_formula_structural  La6Zn4Pd13
_chemical_formula_sum  La6Zn4Pd3
_cell_volume  465.065930234177
_cell_formula_units_Z  1
loop_
  _symmetry_equiv_pos_site_id
 _symmetry_equiv_pos_as_xyz
 1  'x, y, z'
loop_
 _atom_site_type_symbol
 _atom_site_label
 _atom_site_symmetry_multiplicity
 _atom_site_fract_x
 _atom_site_fract_y
 _atom_site_fract_z
 _atom_site_fract_occupancy
 La  La1  1  0.69590  0.69590  0.00000  1
 La  La2  1  0.30410  0.00000  0.30410  1
 La  La3  1  0.00000  0.30410  0.30410  1
 La  La4  1  0.30410  0.30410  -0.00000  1
 La  La5  1  0.69590  0.00000  0.69590  1
 La  La6  1  -0.00000  0.69590  0.69590  1
 Pd  Pd1  1  0.32870  0.32870  0.65741  1
 Pd  Pd2  1  0.34259  0.67130  0.67130  1
 Pd  Pd3  1  0.00000  0.67130  0.32870  1
 Pd  Pd4  1  0.67130  0.32870  -0.00000  1
 Pd  Pd5  1  0.32870  0.65741  0.32870  1
 Pd  Pd6  1  0.67130  0.00000  0.32870  1
 Pd  Pd7  1  0.32870  0.67130  0.00000  1
 Pd  Pd8  1  0.67130  0.67130  0.34259  1
 Pd  Pd9  1  0.65741  0.32870  0.32870  1
 Pd  Pd10  1  -0.00000  0.32870  0.67130  1
 Pd  Pd11  1  0.67130  0.34259  0.67130  1
 Pd  Pd12  1  0.32870  0.00000  0.67130  1
 Pd  Pd13  1  0.00000  0.00000  0.00000  1
 Zn  Zn1  1  0.50000  0.50000  0.50000  1
 Zn  Zn2  1  0.50000  0.00000  -0.00000  1
 Zn  Zn3  1  0.00000  0.50000  -0.00000  1
 Zn  Zn4  1  0.00000  0.00000  0.50000  1
