CIF file written using JARVIS-Tools package.
data_KBa3Fe8As8
_symmetry_space_group_name_H-M  'P-1'
_cell_length_a       6.98793
_cell_length_b       8.77058
_cell_length_c       7.8493
_cell_angle_alpha    63.4235
_cell_angle_beta     73.6868
_cell_angle_gamma    97.2083

_symmetry_Int_Tables_number  2
_chemical_formula_structural  KBa3Fe8As8
_chemical_formula_sum  KBa3Fe8As8
_cell_volume  394.84681233465693
_cell_formula_units_Z  1
loop_
  _symmetry_equiv_pos_site_id
 _symmetry_equiv_pos_as_xyz
 1  'x, y, z'
loop_
 _atom_site_type_symbol
 _atom_site_label
 _atom_site_symmetry_multiplicity
 _atom_site_fract_x
 _atom_site_fract_y
 _atom_site_fract_z
 _atom_site_fract_occupancy
 As  As1  1  0.69272  0.17302  0.73995  1
 As  As2  1  0.69429  0.67349  0.49004  1
 As  As3  1  0.30589  0.82660  0.75986  1
 As  As4  1  0.30728  0.82698  0.26005  1
 As  As5  1  0.30577  0.32597  0.01093  1
 As  As6  1  0.30571  0.32651  0.50996  1
 As  As7  1  0.69423  0.67403  0.98907  1
 As  As8  1  0.69411  0.17340  0.24014  1
 Ba  Ba1  1  -0.00003  0.49205  0.75392  1
 Ba  Ba2  1  -0.00000  -0.00000  0.50000  1
 Ba  Ba3  1  0.00003  0.50795  0.24608  1
 Fe  Fe1  1  0.49986  0.62460  0.81274  1
 Fe  Fe2  1  0.50069  0.62495  0.31236  1
 Fe  Fe3  1  0.50035  0.12536  0.06259  1
 Fe  Fe4  1  0.50014  0.37540  0.18726  1
 Fe  Fe5  1  0.49931  0.37505  0.68764  1
 Fe  Fe6  1  0.50049  0.87476  0.43783  1
 Fe  Fe7  1  0.49965  0.87464  0.93741  1
 Fe  Fe8  1  0.49951  0.12524  0.56217  1
 K  K1  1  0.00000  0.00000  0.00000  1
