CIF file written using JARVIS-Tools package.
data_Mg7VH16
_symmetry_space_group_name_H-M  'Fm-3m'
_cell_length_a       6.54007
_cell_length_b       6.54008
_cell_length_c       6.54007
_cell_angle_alpha    60
_cell_angle_beta     60
_cell_angle_gamma    60

_symmetry_Int_Tables_number  225
_chemical_formula_structural  Mg7VH16
_chemical_formula_sum  Mg7VH6
_cell_volume  197.80289022488483
_cell_formula_units_Z  1
loop_
  _symmetry_equiv_pos_site_id
 _symmetry_equiv_pos_as_xyz
 1  'x, y, z'
loop_
 _atom_site_type_symbol
 _atom_site_label
 _atom_site_symmetry_multiplicity
 _atom_site_fract_x
 _atom_site_fract_y
 _atom_site_fract_z
 _atom_site_fract_occupancy
 H  H1  1  0.11626  0.62791  0.62791  1
 H  H2  1  0.88304  0.88304  0.35087  1
 H  H3  1  0.88304  0.35087  0.88304  1
 H  H4  1  0.35087  0.88304  0.88304  1
 H  H5  1  0.88374  0.37209  0.37209  1
 H  H6  1  0.11696  0.11696  0.64913  1
 H  H7  1  0.11696  0.64913  0.11696  1
 H  H8  1  0.88304  0.88304  0.88304  1
 H  H9  1  0.11696  0.11696  0.11696  1
 H  H10  1  0.62791  0.62791  0.11626  1
 H  H11  1  0.62791  0.11626  0.62791  1
 H  H12  1  0.37209  0.37209  0.37209  1
 H  H13  1  0.62791  0.62791  0.62791  1
 H  H14  1  0.37209  0.37209  0.88374  1
 H  H15  1  0.37209  0.88374  0.37209  1
 H  H16  1  0.64913  0.11696  0.11696  1
 Mg  Mg1  1  0.50000  0.50000  0.50000  1
 Mg  Mg2  1  0.50000  0.00000  -0.00000  1
 Mg  Mg3  1  0.00000  0.50000  -0.00000  1
 Mg  Mg4  1  0.50000  0.50000  -0.00000  1
 Mg  Mg5  1  0.00000  0.50000  0.50000  1
 Mg  Mg6  1  0.50000  0.00000  0.50000  1
 Mg  Mg7  1  0.00000  0.00000  0.50000  1
 V  V1  1  0.00000  0.00000  0.00000  1
