CIF file written using JARVIS-Tools package.
data_NbPb2Se2ClO8
_symmetry_space_group_name_H-M  'P2_1'
_cell_length_a       5.46968
_cell_length_b       8.51659
_cell_length_c       10.7738
_cell_angle_alpha    68.6057
_cell_angle_beta     90
_cell_angle_gamma    90

_symmetry_Int_Tables_number  4
_chemical_formula_structural  NbPb2Se2ClO8
_chemical_formula_sum  Nb2Pb4Se4Cl2O6
_cell_volume  467.294889703871
_cell_formula_units_Z  2
loop_
  _symmetry_equiv_pos_site_id
 _symmetry_equiv_pos_as_xyz
 1  'x, y, z'
loop_
 _atom_site_type_symbol
 _atom_site_label
 _atom_site_symmetry_multiplicity
 _atom_site_fract_x
 _atom_site_fract_y
 _atom_site_fract_z
 _atom_site_fract_occupancy
 Cl  Cl1  1  0.00521  0.13364  0.54121  1
 Cl  Cl2  1  0.50521  0.86636  0.45879  1
 Nb  Nb1  1  0.47940  0.33993  0.06533  1
 Nb  Nb2  1  0.97940  0.66007  0.93467  1
 O  O1  1  0.68871  0.82477  0.93605  1
 O  O2  1  0.40288  0.32671  0.23306  1
 O  O3  1  0.20280  0.88325  0.88039  1
 O  O4  1  0.70280  0.11675  0.11961  1
 O  O5  1  0.53921  0.08978  0.73072  1
 O  O6  1  0.03921  0.91022  0.26928  1
 O  O7  1  0.18871  0.17523  0.06395  1
 O  O8  1  0.21420  0.55840  0.37469  1
 O  O9  1  0.73430  0.57759  0.33192  1
 O  O10  1  0.56607  0.31871  0.87107  1
 O  O11  1  0.06607  0.68129  0.12893  1
 O  O12  1  0.79439  0.46316  0.04563  1
 O  O13  1  0.71420  0.44160  0.62531  1
 O  O14  1  0.23430  0.42241  0.66808  1
 O  O15  1  0.29439  0.53684  0.95437  1
 O  O16  1  0.90288  0.67329  0.76694  1
 Pb  Pb1  1  0.48429  0.30273  0.47962  1
 Pb  Pb2  1  0.98429  0.69727  0.52038  1
 Pb  Pb3  1  0.44711  0.81454  0.20104  1
 Pb  Pb4  1  0.94711  0.18546  0.79896  1
 Se  Se1  1  0.98185  0.11940  0.20199  1
 Se  Se2  1  0.48185  0.88060  0.79801  1
 Se  Se3  1  0.99495  0.51079  0.27422  1
 Se  Se4  1  0.49495  0.48921  0.72578  1
