CIF file written using JARVIS-Tools package.
data_Hf9W4S
_symmetry_space_group_name_H-M  'P6_3/mmc'
_cell_length_a       8.68061
_cell_length_b       8.68061
_cell_length_c       8.55332
_cell_angle_alpha    90
_cell_angle_beta     90
_cell_angle_gamma    120

_symmetry_Int_Tables_number  194
_chemical_formula_structural  Hf9W4S
_chemical_formula_sum  Hf8W8S2
_cell_volume  558.1693301011846
_cell_formula_units_Z  2
loop_
  _symmetry_equiv_pos_site_id
 _symmetry_equiv_pos_as_xyz
 1  'x, y, z'
loop_
 _atom_site_type_symbol
 _atom_site_label
 _atom_site_symmetry_multiplicity
 _atom_site_fract_x
 _atom_site_fract_y
 _atom_site_fract_z
 _atom_site_fract_occupancy
 Hf  Hf1  1  0.19618  0.80382  0.44862  1
 Hf  Hf2  1  0.39237  0.19618  0.94862  1
 Hf  Hf3  1  0.19618  0.39237  0.44862  1
 Hf  Hf4  1  0.60763  0.80382  0.44862  1
 Hf  Hf5  1  0.80382  0.19618  0.55138  1
 Hf  Hf6  1  0.39237  0.19618  0.55138  1
 Hf  Hf7  1  0.80382  0.19618  0.94862  1
 Hf  Hf8  1  0.80382  0.60763  0.94862  1
 Hf  Hf9  1  0.54466  0.08933  0.25000  1
 Hf  Hf10  1  0.80382  0.60763  0.55138  1
 Hf  Hf11  1  0.19618  0.39237  0.05138  1
 Hf  Hf12  1  0.60763  0.80382  0.05138  1
 Hf  Hf13  1  0.54466  0.45534  0.25000  1
 Hf  Hf14  1  0.19618  0.80382  0.05138  1
 Hf  Hf15  1  0.91067  0.45534  0.25000  1
 Hf  Hf16  1  0.45534  0.54466  0.75000  1
 Hf  Hf17  1  0.45534  0.91067  0.75000  1
 Hf  Hf18  1  0.08933  0.54466  0.75000  1
 S  S1  1  0.66667  0.33333  0.75000  1
 S  S2  1  0.33333  0.66667  0.25000  1
 W  W1  1  0.00000  0.00000  0.50000  1
 W  W2  1  0.77735  0.88867  0.75000  1
 W  W3  1  0.11133  0.22265  0.75000  1
 W  W4  1  0.88867  0.11133  0.25000  1
 W  W5  1  0.22265  0.11133  0.25000  1
 W  W6  1  0.88867  0.77735  0.25000  1
 W  W7  1  0.11133  0.88867  0.75000  1
 W  W8  1  0.00000  0.00000  0.00000  1
