CIF file written using JARVIS-Tools package.
data_GaFe19N5
_symmetry_space_group_name_H-M  'P4/m'
_cell_length_a       3.7455
_cell_length_b       8.34837
_cell_length_c       8.34837
_cell_angle_alpha    90
_cell_angle_beta     90
_cell_angle_gamma    90

_symmetry_Int_Tables_number  83
_chemical_formula_structural  GaFe19N5
_chemical_formula_sum  GaFe9N5
_cell_volume  261.0437546916763
_cell_formula_units_Z  1
loop_
  _symmetry_equiv_pos_site_id
 _symmetry_equiv_pos_as_xyz
 1  'x, y, z'
loop_
 _atom_site_type_symbol
 _atom_site_label
 _atom_site_symmetry_multiplicity
 _atom_site_fract_x
 _atom_site_fract_y
 _atom_site_fract_z
 _atom_site_fract_occupancy
 Fe  Fe1  1  0.50000  0.69369  0.61275  1
 Fe  Fe2  1  0.00000  0.29271  0.89970  1
 Fe  Fe3  1  0.00000  0.70729  0.10030  1
 Fe  Fe4  1  0.00000  0.10030  0.29271  1
 Fe  Fe5  1  0.50000  0.30631  0.38725  1
 Fe  Fe6  1  0.50000  0.50000  0.00000  1
 Fe  Fe7  1  0.50000  0.09772  0.80087  1
 Fe  Fe8  1  0.50000  0.80087  0.90228  1
 Fe  Fe9  1  0.00000  0.89970  0.70729  1
 Fe  Fe10  1  0.50000  0.90228  0.19913  1
 Fe  Fe11  1  0.50000  0.19913  0.09772  1
 Fe  Fe12  1  0.50000  0.61275  0.30631  1
 Fe  Fe13  1  0.50000  0.00000  0.50000  1
 Fe  Fe14  1  0.00000  0.40702  0.19873  1
 Fe  Fe15  1  0.00000  0.80127  0.40702  1
 Fe  Fe16  1  0.00000  0.19873  0.59298  1
 Fe  Fe17  1  0.00000  0.59298  0.80127  1
 Fe  Fe18  1  0.50000  0.38725  0.69369  1
 Fe  Fe19  1  0.00000  0.50000  0.50000  1
 Ga  Ga1  1  0.00000  0.00000  0.00000  1
 N  N1  1  0.50000  0.70004  0.10142  1
 N  N2  1  0.50000  0.50000  0.50000  1
 N  N3  1  0.50000  0.89858  0.70004  1
 N  N4  1  0.50000  0.29996  0.89858  1
 N  N5  1  0.50000  0.10142  0.29996  1
