CIF file written using JARVIS-Tools package.
data_CuSeS
_symmetry_space_group_name_H-M  'P2_13'
_cell_length_a       5.99894
_cell_length_b       5.99894
_cell_length_c       5.99894
_cell_angle_alpha    90
_cell_angle_beta     90
_cell_angle_gamma    90

_symmetry_Int_Tables_number  198
_chemical_formula_structural  CuSeS
_chemical_formula_sum  Cu4Se4S4
_cell_volume  215.88606319049518
_cell_formula_units_Z  4
loop_
  _symmetry_equiv_pos_site_id
 _symmetry_equiv_pos_as_xyz
 1  'x, y, z'
loop_
 _atom_site_type_symbol
 _atom_site_label
 _atom_site_symmetry_multiplicity
 _atom_site_fract_x
 _atom_site_fract_y
 _atom_site_fract_z
 _atom_site_fract_occupancy
 Cu  Cu1  1  0.51252  0.48748  0.98748  1
 Cu  Cu2  1  0.48748  0.98748  0.51252  1
 Cu  Cu3  1  0.98748  0.51252  0.48748  1
 Cu  Cu4  1  0.01252  0.01252  0.01252  1
 S  S1  1  0.10440  0.89560  0.39560  1
 S  S2  1  0.89560  0.39560  0.10440  1
 S  S3  1  0.39560  0.10440  0.89560  1
 S  S4  1  0.60440  0.60440  0.60440  1
 Se  Se1  1  0.88999  0.11001  0.61001  1
 Se  Se2  1  0.11001  0.61001  0.88999  1
 Se  Se3  1  0.61001  0.88999  0.11001  1
 Se  Se4  1  0.38999  0.38999  0.38999  1
