CIF file written using JARVIS-Tools package.
data_Nb4FeS8
_symmetry_space_group_name_H-M  'P6_3/mmc'
_cell_length_a       6.67404
_cell_length_b       6.67404
_cell_length_c       11.6675
_cell_angle_alpha    90
_cell_angle_beta     90
_cell_angle_gamma    120

_symmetry_Int_Tables_number  194
_chemical_formula_structural  Nb4FeS8
_chemical_formula_sum  Nb8Fe2S6
_cell_volume  450.07741123793596
_cell_formula_units_Z  2
loop_
  _symmetry_equiv_pos_site_id
 _symmetry_equiv_pos_as_xyz
 1  'x, y, z'
loop_
 _atom_site_type_symbol
 _atom_site_label
 _atom_site_symmetry_multiplicity
 _atom_site_fract_x
 _atom_site_fract_y
 _atom_site_fract_z
 _atom_site_fract_occupancy
 Fe  Fe1  1  0.00000  0.00000  0.00000  1
 Fe  Fe2  1  0.00000  0.00000  0.50000  1
 Nb  Nb1  1  0.50653  0.49347  0.25000  1
 Nb  Nb2  1  0.98694  0.49347  0.25000  1
 Nb  Nb3  1  0.50653  0.01306  0.25000  1
 Nb  Nb4  1  0.00000  0.00000  0.25000  1
 Nb  Nb5  1  0.01306  0.50653  0.75000  1
 Nb  Nb6  1  0.49347  0.98694  0.75000  1
 Nb  Nb7  1  0.00000  0.00000  0.75000  1
 Nb  Nb8  1  0.49347  0.50653  0.75000  1
 S  S1  1  0.32929  0.16464  0.88559  1
 S  S2  1  0.33333  0.66667  0.88945  1
 S  S3  1  0.66667  0.33333  0.11055  1
 S  S4  1  0.32929  0.16464  0.61441  1
 S  S5  1  0.33333  0.66667  0.61055  1
 S  S6  1  0.83536  0.67071  0.88559  1
 S  S7  1  0.66667  0.33333  0.38945  1
 S  S8  1  0.67071  0.83536  0.38559  1
 S  S9  1  0.67071  0.83536  0.11441  1
 S  S10  1  0.16464  0.83536  0.11441  1
 S  S11  1  0.16464  0.32929  0.38559  1
 S  S12  1  0.83536  0.16464  0.88559  1
 S  S13  1  0.16464  0.83536  0.38559  1
 S  S14  1  0.83536  0.67071  0.61441  1
 S  S15  1  0.16464  0.32929  0.11441  1
 S  S16  1  0.83536  0.16464  0.61441  1
