CIF file written using JARVIS-Tools package.
data_Cr5InS8
_symmetry_space_group_name_H-M  'Cm'
_cell_length_a       9.20506
_cell_length_b       9.20507
_cell_length_c       8.67378
_cell_angle_alpha    75.2121
_cell_angle_beta     75.2121
_cell_angle_gamma    21.7959

_symmetry_Int_Tables_number  8
_chemical_formula_structural  Cr5InS8
_chemical_formula_sum  Cr5InS8
_cell_volume  263.51072209454406
_cell_formula_units_Z  1
loop_
  _symmetry_equiv_pos_site_id
 _symmetry_equiv_pos_as_xyz
 1  'x, y, z'
loop_
 _atom_site_type_symbol
 _atom_site_label
 _atom_site_symmetry_multiplicity
 _atom_site_fract_x
 _atom_site_fract_y
 _atom_site_fract_z
 _atom_site_fract_occupancy
 Cr  Cr1  1  0.20305  0.20305  0.16515  1
 Cr  Cr2  1  0.79606  0.79606  0.83416  1
 Cr  Cr3  1  0.50058  0.50058  0.50013  1
 Cr  Cr4  1  0.84113  0.84113  0.47399  1
 Cr  Cr5  1  0.15755  0.15755  0.52747  1
 In  In1  1  0.98154  0.98154  0.00800  1
 S  S1  1  0.41462  0.41462  0.32741  1
 S  S2  1  0.58464  0.58464  0.67358  1
 S  S3  1  0.73689  0.73689  0.34533  1
 S  S4  1  0.26209  0.26209  0.65641  1
 S  S5  1  0.07641  0.07641  0.34955  1
 S  S6  1  0.92382  0.92382  0.64954  1
 S  S7  1  0.32817  0.32817  0.98929  1
 S  S8  1  0.67235  0.67235  0.01048  1
