CIF file written using JARVIS-Tools package.
data_Zr2FeB2Ru5
_symmetry_space_group_name_H-M  'P4/mbm'
_cell_length_a       9.32338
_cell_length_b       9.32338
_cell_length_c       3.04548
_cell_angle_alpha    90
_cell_angle_beta     90
_cell_angle_gamma    90

_symmetry_Int_Tables_number  127
_chemical_formula_structural  Zr2FeB2Ru5
_chemical_formula_sum  Zr4Fe2B4Ru0
_cell_volume  264.7298406207581
_cell_formula_units_Z  2
loop_
  _symmetry_equiv_pos_site_id
 _symmetry_equiv_pos_as_xyz
 1  'x, y, z'
loop_
 _atom_site_type_symbol
 _atom_site_label
 _atom_site_symmetry_multiplicity
 _atom_site_fract_x
 _atom_site_fract_y
 _atom_site_fract_z
 _atom_site_fract_occupancy
 B  B1  1  0.87607  0.37607  0.00000  1
 B  B2  1  0.62393  0.87607  0.00000  1
 B  B3  1  0.37607  0.12393  0.00000  1
 B  B4  1  0.12393  0.62393  0.00000  1
 Fe  Fe1  1  0.00000  0.00000  0.00000  1
 Fe  Fe2  1  0.50000  0.50000  0.00000  1
 Ru  Ru1  1  0.57040  0.71288  0.50000  1
 Ru  Ru2  1  0.28712  0.57040  0.50000  1
 Ru  Ru3  1  0.92960  0.21288  0.50000  1
 Ru  Ru4  1  0.71288  0.42960  0.50000  1
 Ru  Ru5  1  0.07040  0.78712  0.50000  1
 Ru  Ru6  1  0.78712  0.92960  0.50000  1
 Ru  Ru7  1  0.00000  0.50000  0.50000  1
 Ru  Ru8  1  0.50000  0.00000  0.50000  1
 Ru  Ru9  1  0.42960  0.28712  0.50000  1
 Ru  Ru10  1  0.21288  0.07040  0.50000  1
 Zr  Zr1  1  0.82341  0.67659  0.00000  1
 Zr  Zr2  1  0.17659  0.32341  0.00000  1
 Zr  Zr3  1  0.32341  0.82341  0.00000  1
 Zr  Zr4  1  0.67659  0.17659  0.00000  1
