CIF file written using JARVIS-Tools package.
data_GaSb3Pb4O13
_symmetry_space_group_name_H-M  'R3m'
_cell_length_a       7.44355
_cell_length_b       7.44355
_cell_length_c       7.44354
_cell_angle_alpha    60.6902
_cell_angle_beta     60.6902
_cell_angle_gamma    60.6901

_symmetry_Int_Tables_number  160
_chemical_formula_structural  GaSb3Pb4O13
_chemical_formula_sum  GaSb3Pb4O3
_cell_volume  296.16768208925686
_cell_formula_units_Z  1
loop_
  _symmetry_equiv_pos_site_id
 _symmetry_equiv_pos_as_xyz
 1  'x, y, z'
loop_
 _atom_site_type_symbol
 _atom_site_label
 _atom_site_symmetry_multiplicity
 _atom_site_fract_x
 _atom_site_fract_y
 _atom_site_fract_z
 _atom_site_fract_occupancy
 Ga  Ga1  1  0.49949  0.49949  0.49949  1
 O  O1  1  0.82608  0.42670  0.42670  1
 O  O2  1  0.42481  0.82373  0.82373  1
 O  O3  1  0.57121  0.17699  0.57121  1
 O  O4  1  0.82373  0.82373  0.42481  1
 O  O5  1  0.82373  0.42481  0.82373  1
 O  O6  1  0.42670  0.42670  0.82608  1
 O  O7  1  0.17699  0.57121  0.57121  1
 O  O8  1  0.57323  0.17885  0.17885  1
 O  O9  1  0.42670  0.82608  0.42670  1
 O  O10  1  0.57121  0.57121  0.17699  1
 O  O11  1  0.17885  0.57323  0.17885  1
 O  O12  1  0.17885  0.17885  0.57323  1
 O  O13  1  0.12365  0.12365  0.12365  1
 Pb  Pb1  1  0.99831  0.50520  0.99831  1
 Pb  Pb2  1  0.99831  0.99831  0.50520  1
 Pb  Pb3  1  0.50520  0.99831  0.99831  1
 Pb  Pb4  1  0.99733  0.99733  0.99733  1
 Sb  Sb1  1  0.49979  0.00105  0.49979  1
 Sb  Sb2  1  0.49979  0.49979  0.00105  1
 Sb  Sb3  1  0.00105  0.49979  0.49979  1
