CIF file written using JARVIS-Tools package.
data_Co5NiS8
_symmetry_space_group_name_H-M  'F-43m'
_cell_length_a       6.59988
_cell_length_b       6.59988
_cell_length_c       6.59988
_cell_angle_alpha    60
_cell_angle_beta     60
_cell_angle_gamma    60

_symmetry_Int_Tables_number  216
_chemical_formula_structural  Co5NiS8
_chemical_formula_sum  Co5NiS8
_cell_volume  203.27905776850417
_cell_formula_units_Z  1
loop_
  _symmetry_equiv_pos_site_id
 _symmetry_equiv_pos_as_xyz
 1  'x, y, z'
loop_
 _atom_site_type_symbol
 _atom_site_label
 _atom_site_symmetry_multiplicity
 _atom_site_fract_x
 _atom_site_fract_y
 _atom_site_fract_z
 _atom_site_fract_occupancy
 Co  Co1  1  0.62504  0.62504  0.12489  1
 Co  Co2  1  0.62504  0.12489  0.62504  1
 Co  Co3  1  0.12489  0.62504  0.62504  1
 Co  Co4  1  0.62504  0.62504  0.62504  1
 Co  Co5  1  0.25000  0.25000  0.25000  1
 Ni  Ni1  1  0.00000  0.00000  0.00000  1
 S  S1  1  0.86594  0.86594  0.40219  1
 S  S2  1  0.86594  0.40219  0.86594  1
 S  S3  1  0.40219  0.86594  0.86594  1
 S  S4  1  0.86594  0.86594  0.86594  1
 S  S5  1  0.38198  0.38198  0.85406  1
 S  S6  1  0.38198  0.85406  0.38198  1
 S  S7  1  0.85406  0.38198  0.38198  1
 S  S8  1  0.38198  0.38198  0.38198  1
