CIF file written using JARVIS-Tools package.
data_Sm2Ga9Ir3
_symmetry_space_group_name_H-M  'Cmcm'
_cell_length_a       7.61027
_cell_length_b       7.61027
_cell_length_c       9.57879
_cell_angle_alpha    90
_cell_angle_beta     90
_cell_angle_gamma    119.787

_symmetry_Int_Tables_number  63
_chemical_formula_structural  Sm2Ga9Ir3
_chemical_formula_sum  Sm4Ga8Ir6
_cell_volume  481.47072598324274
_cell_formula_units_Z  2
loop_
  _symmetry_equiv_pos_site_id
 _symmetry_equiv_pos_as_xyz
 1  'x, y, z'
loop_
 _atom_site_type_symbol
 _atom_site_label
 _atom_site_symmetry_multiplicity
 _atom_site_fract_x
 _atom_site_fract_y
 _atom_site_fract_z
 _atom_site_fract_occupancy
 Ga  Ga1  1  0.66534  -0.00022  0.57929  1
 Ga  Ga2  1  0.87031  0.87031  0.75000  1
 Ga  Ga3  1  0.00022  0.33466  0.07929  1
 Ga  Ga4  1  -0.00022  0.66534  0.92071  1
 Ga  Ga5  1  -0.00022  0.66534  0.57929  1
 Ga  Ga6  1  0.33466  0.00022  0.42071  1
 Ga  Ga7  1  0.00022  0.33466  0.42071  1
 Ga  Ga8  1  0.33466  0.00022  0.07929  1
 Ga  Ga9  1  0.33290  0.33290  0.56485  1
 Ga  Ga10  1  0.12969  0.12969  0.25000  1
 Ga  Ga11  1  0.66710  0.66710  0.43515  1
 Ga  Ga12  1  0.33290  0.33290  0.93515  1
 Ga  Ga13  1  0.33894  0.54551  0.25000  1
 Ga  Ga14  1  0.66106  0.45449  0.75000  1
 Ga  Ga15  1  0.54551  0.33894  0.25000  1
 Ga  Ga16  1  0.45449  0.66106  0.75000  1
 Ga  Ga17  1  0.66710  0.66710  0.06485  1
 Ga  Ga18  1  0.66534  -0.00022  0.92071  1
 Ir  Ir1  1  0.00000  0.00000  0.00000  1
 Ir  Ir2  1  0.67072  0.32928  0.00000  1
 Ir  Ir3  1  0.32928  0.67072  0.00000  1
 Ir  Ir4  1  0.32928  0.67072  0.50000  1
 Ir  Ir5  1  0.00000  0.00000  0.50000  1
 Ir  Ir6  1  0.67072  0.32928  0.50000  1
 Sm  Sm1  1  0.33071  0.00279  0.75000  1
 Sm  Sm2  1  0.66929  0.99721  0.25000  1
 Sm  Sm3  1  0.00279  0.33071  0.75000  1
 Sm  Sm4  1  0.99721  0.66929  0.25000  1
