CIF file written using JARVIS-Tools package.
data_AgAsO2
_symmetry_space_group_name_H-M  'R3m'
_cell_length_a       6.56389
_cell_length_b       6.56389
_cell_length_c       6.56389
_cell_angle_alpha    28.1682
_cell_angle_beta     28.1682
_cell_angle_gamma    28.1683

_symmetry_Int_Tables_number  160
_chemical_formula_structural  AgAsO2
_chemical_formula_sum  AgAsO2
_cell_volume  55.6754268739529
_cell_formula_units_Z  1
loop_
  _symmetry_equiv_pos_site_id
 _symmetry_equiv_pos_as_xyz
 1  'x, y, z'
loop_
 _atom_site_type_symbol
 _atom_site_label
 _atom_site_symmetry_multiplicity
 _atom_site_fract_x
 _atom_site_fract_y
 _atom_site_fract_z
 _atom_site_fract_occupancy
 Ag  Ag1  1  0.15728  0.15728  0.15728  1
 As  As1  1  0.99844  0.99844  0.99844  1
 O  O1  1  0.27244  0.27244  0.27244  1
 O  O2  1  0.73085  0.73085  0.73085  1
