CIF file written using JARVIS-Tools package.
data_AgAsO4
_symmetry_space_group_name_H-M  'I-4'
_cell_length_a       4.66568
_cell_length_b       4.66568
_cell_length_c       4.66568
_cell_angle_alpha    107.244
_cell_angle_beta     107.244
_cell_angle_gamma    114.025

_symmetry_Int_Tables_number  82
_chemical_formula_structural  AgAsO4
_chemical_formula_sum  AgAsO4
_cell_volume  77.81118770861391
_cell_formula_units_Z  1
loop_
  _symmetry_equiv_pos_site_id
 _symmetry_equiv_pos_as_xyz
 1  'x, y, z'
loop_
 _atom_site_type_symbol
 _atom_site_label
 _atom_site_symmetry_multiplicity
 _atom_site_fract_x
 _atom_site_fract_y
 _atom_site_fract_z
 _atom_site_fract_occupancy
 Ag  Ag1  1  0.75000  0.25000  0.50000  1
 As  As1  1  0.00000  0.00000  0.00000  1
 O  O1  1  0.02370  0.03263  0.64547  1
 O  O2  1  0.38716  0.37824  0.35453  1
 O  O3  1  -0.03263  0.61283  -0.00893  1
 O  O4  1  0.62176  -0.02370  0.00893  1
