CIF file written using JARVIS-Tools package.
data_CeTh3O8
_symmetry_space_group_name_H-M  'R-3m'
_cell_length_a       13.0668
_cell_length_b       13.0668
_cell_length_c       13.0668
_cell_angle_alpha    17.3821
_cell_angle_beta     17.3821
_cell_angle_gamma    17.3821

_symmetry_Int_Tables_number  166
_chemical_formula_structural  CeTh3O8
_chemical_formula_sum  CeTh3O8
_cell_volume  173.76099667664155
_cell_formula_units_Z  1
loop_
  _symmetry_equiv_pos_site_id
 _symmetry_equiv_pos_as_xyz
 1  'x, y, z'
loop_
 _atom_site_type_symbol
 _atom_site_label
 _atom_site_symmetry_multiplicity
 _atom_site_fract_x
 _atom_site_fract_y
 _atom_site_fract_z
 _atom_site_fract_occupancy
 Ce  Ce1  1  0.00000  0.00000  0.00000  1
 O  O1  1  0.81214  0.81214  0.81214  1
 O  O2  1  0.06106  0.06106  0.06106  1
 O  O3  1  0.31357  0.31357  0.31357  1
 O  O4  1  0.56331  0.56331  0.56331  1
 O  O5  1  0.43669  0.43669  0.43669  1
 O  O6  1  0.68643  0.68643  0.68643  1
 O  O7  1  0.93894  0.93894  0.93894  1
 O  O8  1  0.18786  0.18786  0.18786  1
 Th  Th1  1  0.25121  0.25121  0.25121  1
 Th  Th2  1  0.50000  0.50000  0.50000  1
 Th  Th3  1  0.74879  0.74879  0.74879  1
