CIF file written using JARVIS-Tools package.
data_LiCa2FeN2
_symmetry_space_group_name_H-M  'P4_2/mnm'
_cell_length_a       5.19345
_cell_length_b       5.19345
_cell_length_c       6.76466
_cell_angle_alpha    90
_cell_angle_beta     90
_cell_angle_gamma    90

_symmetry_Int_Tables_number  136
_chemical_formula_structural  LiCa2FeN2
_chemical_formula_sum  Li2Ca4Fe2N4
_cell_volume  182.45576648416497
_cell_formula_units_Z  2
loop_
  _symmetry_equiv_pos_site_id
 _symmetry_equiv_pos_as_xyz
 1  'x, y, z'
loop_
 _atom_site_type_symbol
 _atom_site_label
 _atom_site_symmetry_multiplicity
 _atom_site_fract_x
 _atom_site_fract_y
 _atom_site_fract_z
 _atom_site_fract_occupancy
 Ca  Ca1  1  0.00000  0.50000  0.25000  1
 Ca  Ca2  1  0.00000  0.50000  0.75000  1
 Ca  Ca3  1  0.50000  0.00000  0.25000  1
 Ca  Ca4  1  0.50000  0.00000  0.75000  1
 Fe  Fe1  1  0.00000  0.00000  0.00000  1
 Fe  Fe2  1  0.50000  0.50000  0.50000  1
 Li  Li1  1  0.00000  0.00000  0.50000  1
 Li  Li2  1  0.50000  0.50000  0.00000  1
 N  N1  1  0.23681  0.23681  0.00000  1
 N  N2  1  0.76319  0.76319  0.00000  1
 N  N3  1  0.26319  0.73681  0.50000  1
 N  N4  1  0.73681  0.26319  0.50000  1
