CIF file written using JARVIS-Tools package.
data_LiGdS2O8
_symmetry_space_group_name_H-M  'P-4n2'
_cell_length_a       7.55462
_cell_length_b       7.55462
_cell_length_c       5.94703
_cell_angle_alpha    90
_cell_angle_beta     90
_cell_angle_gamma    90

_symmetry_Int_Tables_number  118
_chemical_formula_structural  LiGdS2O8
_chemical_formula_sum  Li2Gd2S4O6
_cell_volume  339.4103283109422
_cell_formula_units_Z  2
loop_
  _symmetry_equiv_pos_site_id
 _symmetry_equiv_pos_as_xyz
 1  'x, y, z'
loop_
 _atom_site_type_symbol
 _atom_site_label
 _atom_site_symmetry_multiplicity
 _atom_site_fract_x
 _atom_site_fract_y
 _atom_site_fract_z
 _atom_site_fract_occupancy
 Gd  Gd1  1  0.00000  0.50000  0.25000  1
 Gd  Gd2  1  0.50000  0.00000  0.75000  1
 Li  Li1  1  0.00000  0.50000  0.75000  1
 Li  Li2  1  0.50000  0.00000  0.25000  1
 O  O1  1  0.18442  0.41361  0.92995  1
 O  O2  1  0.81558  0.58639  0.92995  1
 O  O3  1  0.68442  0.08639  0.42995  1
 O  O4  1  0.59683  0.70631  0.65649  1
 O  O5  1  0.58639  0.18442  0.07005  1
 O  O6  1  0.41361  0.81558  0.07005  1
 O  O7  1  0.31558  0.91361  0.42995  1
 O  O8  1  0.91361  0.68442  0.57005  1
 O  O9  1  0.20631  0.09683  0.84351  1
 O  O10  1  0.70631  0.40317  0.34351  1
 O  O11  1  0.08639  0.31558  0.57005  1
 O  O12  1  0.29369  0.59683  0.34351  1
 O  O13  1  0.09683  0.79369  0.15649  1
 O  O14  1  0.90317  0.20631  0.15649  1
 O  O15  1  0.79369  0.90317  0.84351  1
 O  O16  1  0.40317  0.29369  0.65649  1
 S  S1  1  0.27754  0.77754  0.25000  1
 S  S2  1  0.72246  0.22246  0.25000  1
 S  S3  1  0.77754  0.72246  0.75000  1
 S  S4  1  0.22246  0.27754  0.75000  1
