CIF file written using JARVIS-Tools package.
data_Cr2B3Os
_symmetry_space_group_name_H-M  'Pm'
_cell_length_a       2.91549
_cell_length_b       4.25216
_cell_length_c       17.4433
_cell_angle_alpha    89.6012
_cell_angle_beta     90
_cell_angle_gamma    90

_symmetry_Int_Tables_number  6
_chemical_formula_structural  Cr2B3Os
_chemical_formula_sum  Cr8B2Os4
_cell_volume  216.24148897353263
_cell_formula_units_Z  4
loop_
  _symmetry_equiv_pos_site_id
 _symmetry_equiv_pos_as_xyz
 1  'x, y, z'
loop_
 _atom_site_type_symbol
 _atom_site_label
 _atom_site_symmetry_multiplicity
 _atom_site_fract_x
 _atom_site_fract_y
 _atom_site_fract_z
 _atom_site_fract_occupancy
 B  B1  1  0.50000  0.89702  0.18291  1
 B  B2  1  0.00000  0.38034  0.32315  1
 B  B3  1  0.00000  0.12814  0.81904  1
 B  B4  1  0.00000  0.11064  0.48827  1
 B  B5  1  0.00000  0.10860  0.15996  1
 B  B6  1  0.00000  0.38709  0.65127  1
 B  B7  1  0.00000  0.38800  0.99039  1
 B  B8  1  0.50000  0.91025  0.84048  1
 B  B9  1  0.50000  0.60321  0.01216  1
 B  B10  1  0.50000  0.60460  0.34314  1
 B  B11  1  0.50000  0.61104  0.67097  1
 B  B12  1  0.50000  0.89868  0.51181  1
 Cr  Cr1  1  0.00000  0.89089  0.60433  1
 Cr  Cr2  1  0.50000  0.11421  0.06410  1
 Cr  Cr3  1  0.50000  0.10362  0.38916  1
 Cr  Cr4  1  0.50000  0.11393  0.71811  1
 Cr  Cr5  1  0.50000  0.37287  0.23523  1
 Cr  Cr6  1  0.50000  0.37650  0.56316  1
 Cr  Cr7  1  0.50000  0.39531  0.89276  1
 Cr  Cr8  1  0.00000  0.88277  0.27468  1
 Os  Os1  1  0.00000  0.60125  0.11436  1
 Os  Os2  1  0.00000  0.61715  0.76823  1
 Os  Os3  1  0.00000  0.60375  0.44138  1
 Os  Os4  1  0.00000  0.90012  0.94095  1
