CIF file written using JARVIS-Tools package.
data_Ce4S4Cl2O
_symmetry_space_group_name_H-M  'Cmc2_1'
_cell_length_a       9.25167
_cell_length_b       9.25167
_cell_length_c       6.91596
_cell_angle_alpha    90
_cell_angle_beta     90
_cell_angle_gamma    121.086

_symmetry_Int_Tables_number  36
_chemical_formula_structural  Ce4S4Cl2O
_chemical_formula_sum  Ce8S8Cl4O2
_cell_volume  506.9520971443878
_cell_formula_units_Z  2
loop_
  _symmetry_equiv_pos_site_id
 _symmetry_equiv_pos_as_xyz
 1  'x, y, z'
loop_
 _atom_site_type_symbol
 _atom_site_label
 _atom_site_symmetry_multiplicity
 _atom_site_fract_x
 _atom_site_fract_y
 _atom_site_fract_z
 _atom_site_fract_occupancy
 Ce  Ce1  1  0.31778  0.68222  0.71050  1
 Ce  Ce2  1  0.68222  0.31778  0.21050  1
 Ce  Ce3  1  0.19542  0.80458  0.26330  1
 Ce  Ce4  1  0.19282  0.39186  0.24418  1
 Ce  Ce5  1  0.60814  0.80718  0.24418  1
 Ce  Ce6  1  0.80458  0.19542  0.76330  1
 Ce  Ce7  1  0.80718  0.60814  0.74418  1
 Ce  Ce8  1  0.39186  0.19282  0.74418  1
 Cl  Cl1  1  0.26337  0.13218  0.13986  1
 Cl  Cl2  1  0.86782  0.73663  0.13986  1
 Cl  Cl3  1  0.73663  0.86782  0.63986  1
 Cl  Cl4  1  0.13218  0.26337  0.63986  1
 O  O1  1  0.66593  0.33407  0.86517  1
 O  O2  1  0.33407  0.66593  0.36517  1
 S  S1  1  0.46985  0.94845  0.97901  1
 S  S2  1  0.46112  0.53888  0.95805  1
 S  S3  1  0.53888  0.46112  0.45805  1
 S  S4  1  0.53015  0.05155  0.47901  1
 S  S5  1  0.13023  0.86977  0.64078  1
 S  S6  1  0.86977  0.13023  0.14078  1
 S  S7  1  0.05155  0.53015  0.97901  1
 S  S8  1  0.94845  0.46985  0.47901  1
