CIF file written using JARVIS-Tools package.
data_Ca2La2Ti3CuO12
_symmetry_space_group_name_H-M  'P4/mmm'
_cell_length_a       3.87442
_cell_length_b       3.87442
_cell_length_c       15.8497
_cell_angle_alpha    90
_cell_angle_beta     90
_cell_angle_gamma    90

_symmetry_Int_Tables_number  123
_chemical_formula_structural  Ca2La2Ti3CuO12
_chemical_formula_sum  Ca2La2Ti3CuO2
_cell_volume  237.9225771570475
_cell_formula_units_Z  1
loop_
  _symmetry_equiv_pos_site_id
 _symmetry_equiv_pos_as_xyz
 1  'x, y, z'
loop_
 _atom_site_type_symbol
 _atom_site_label
 _atom_site_symmetry_multiplicity
 _atom_site_fract_x
 _atom_site_fract_y
 _atom_site_fract_z
 _atom_site_fract_occupancy
 Ca  Ca1  1  0.50000  0.50000  0.62143  1
 Ca  Ca2  1  0.50000  0.50000  0.37857  1
 Cu  Cu1  1  0.00000  0.00000  0.00000  1
 La  La1  1  0.50000  0.50000  0.88382  1
 La  La2  1  0.50000  0.50000  0.11618  1
 O  O1  1  0.00000  0.00000  0.86588  1
 O  O2  1  0.50000  0.00000  0.50000  1
 O  O3  1  0.50000  0.00000  0.74587  1
 O  O4  1  0.00000  0.50000  0.74587  1
 O  O5  1  0.00000  0.00000  0.13412  1
 O  O6  1  0.00000  0.50000  0.25413  1
 O  O7  1  0.00000  0.00000  0.62215  1
 O  O8  1  0.00000  0.50000  0.00000  1
 O  O9  1  0.50000  0.00000  0.25413  1
 O  O10  1  0.00000  0.00000  0.37785  1
 O  O11  1  0.50000  0.00000  0.00000  1
 O  O12  1  0.00000  0.50000  0.50000  1
 Ti  Ti1  1  0.00000  0.00000  0.50000  1
 Ti  Ti2  1  0.00000  0.00000  0.25482  1
 Ti  Ti3  1  0.00000  0.00000  0.74518  1
