CIF file written using JARVIS-Tools package.
data_ZrVCuS4
_symmetry_space_group_name_H-M  'Imma'
_cell_length_a       7.18234
_cell_length_b       7.18234
_cell_length_c       7.18234
_cell_angle_alpha    119.71
_cell_angle_beta     119.042
_cell_angle_gamma    91.0851

_symmetry_Int_Tables_number  74
_chemical_formula_structural  ZrVCuS4
_chemical_formula_sum  Zr2V2Cu2S8
_cell_volume  264.39691990443504
_cell_formula_units_Z  2
loop_
  _symmetry_equiv_pos_site_id
 _symmetry_equiv_pos_as_xyz
 1  'x, y, z'
loop_
 _atom_site_type_symbol
 _atom_site_label
 _atom_site_symmetry_multiplicity
 _atom_site_fract_x
 _atom_site_fract_y
 _atom_site_fract_z
 _atom_site_fract_occupancy
 Cu  Cu1  1  0.38279  0.63279  0.75000  1
 Cu  Cu2  1  0.61721  0.36721  0.25000  1
 S  S1  1  0.24402  0.74515  0.00113  1
 S  S2  1  0.24402  0.24289  0.49887  1
 S  S3  1  0.22456  0.74585  0.47870  1
 S  S4  1  0.76715  0.74585  0.02130  1
 S  S5  1  0.75598  0.25485  -0.00113  1
 S  S6  1  0.75598  0.75711  0.50113  1
 S  S7  1  0.77544  0.25415  0.52130  1
 S  S8  1  0.23285  0.25415  0.97870  1
 V  V1  1  0.00000  0.00000  0.50000  1
 V  V2  1  0.00000  0.50000  0.00000  1
 Zr  Zr1  1  0.00000  0.00000  0.00000  1
 Zr  Zr2  1  0.50000  0.00000  0.50000  1
