CIF file written using JARVIS-Tools package.
data_BaSrPdF6
_symmetry_space_group_name_H-M  'Aea2'
_cell_length_a       9.03342
_cell_length_b       9.03342
_cell_length_c       6.01248
_cell_angle_alpha    90
_cell_angle_beta     90
_cell_angle_gamma    141.079

_symmetry_Int_Tables_number  41
_chemical_formula_structural  BaSrPdF6
_chemical_formula_sum  Ba2Sr2Pd2F2
_cell_volume  308.24019136264184
_cell_formula_units_Z  2
loop_
  _symmetry_equiv_pos_site_id
 _symmetry_equiv_pos_as_xyz
 1  'x, y, z'
loop_
 _atom_site_type_symbol
 _atom_site_label
 _atom_site_symmetry_multiplicity
 _atom_site_fract_x
 _atom_site_fract_y
 _atom_site_fract_z
 _atom_site_fract_occupancy
 Ba  Ba1  1  0.33629  0.66371  0.50000  1
 Ba  Ba2  1  0.83629  0.16371  0.00000  1
 F  F1  1  0.50036  0.01532  0.24873  1
 F  F2  1  0.98468  0.49964  0.75127  1
 F  F3  1  0.75264  0.57735  0.16549  1
 F  F4  1  0.00036  0.51532  0.25127  1
 F  F5  1  0.48468  -0.00036  0.74873  1
 F  F6  1  0.75794  0.91869  0.66216  1
 F  F7  1  0.25794  0.41869  0.83784  1
 F  F8  1  0.58131  0.74206  0.16216  1
 F  F9  1  0.92265  0.74736  0.66549  1
 F  F10  1  0.25264  0.07735  0.33451  1
 F  F11  1  0.08131  0.24206  0.33784  1
 F  F12  1  0.42265  0.24736  0.83451  1
 Pd  Pd1  1  0.50422  0.49578  0.00000  1
 Pd  Pd2  1  0.00422  0.99578  0.50000  1
 Sr  Sr1  1  0.15992  0.84008  0.00000  1
 Sr  Sr2  1  0.65992  0.34008  0.50000  1
