CIF file written using JARVIS-Tools package.
data_TaNbCu3O8
_symmetry_space_group_name_H-M  'P1'
_cell_length_a       5.26732
_cell_length_b       5.49342
_cell_length_c       6.02935
_cell_angle_alpha    73.4223
_cell_angle_beta     82.7211
_cell_angle_gamma    66.3543

_symmetry_Int_Tables_number  1
_chemical_formula_structural  TaNbCu3O8
_chemical_formula_sum  TaNbCu3O8
_cell_volume  153.15785273873635
_cell_formula_units_Z  1
loop_
  _symmetry_equiv_pos_site_id
 _symmetry_equiv_pos_as_xyz
 1  'x, y, z'
loop_
 _atom_site_type_symbol
 _atom_site_label
 _atom_site_symmetry_multiplicity
 _atom_site_fract_x
 _atom_site_fract_y
 _atom_site_fract_z
 _atom_site_fract_occupancy
 Cu  Cu1  1  0.99997  0.00105  0.00120  1
 Cu  Cu2  1  0.54491  0.92580  0.76004  1
 Cu  Cu3  1  0.45566  0.07560  0.23835  1
 Nb  Nb1  1  0.22062  0.53769  0.65313  1
 O  O1  1  0.76315  0.80049  0.09841  1
 O  O2  1  0.24073  0.19715  0.90410  1
 O  O3  1  0.73789  0.25536  0.16532  1
 O  O4  1  0.26170  0.74884  0.83472  1
 O  O5  1  0.82749  0.68308  0.59602  1
 O  O6  1  0.16829  0.31310  0.40109  1
 O  O7  1  0.63736  0.26231  0.63367  1
 O  O8  1  0.36551  0.73481  0.36470  1
 Ta  Ta1  1  0.77672  0.46472  0.34924  1
