CIF file written using JARVIS-Tools package.
data_Nb12Ga3Ge
_symmetry_space_group_name_H-M  'Pmmm'
_cell_length_a       5.18965
_cell_length_b       5.18987
_cell_length_c       10.3801
_cell_angle_alpha    90
_cell_angle_beta     90
_cell_angle_gamma    90

_symmetry_Int_Tables_number  47
_chemical_formula_structural  Nb12Ga3Ge
_chemical_formula_sum  Nb2Ga3Ge
_cell_volume  279.5729109035382
_cell_formula_units_Z  1
loop_
  _symmetry_equiv_pos_site_id
 _symmetry_equiv_pos_as_xyz
 1  'x, y, z'
loop_
 _atom_site_type_symbol
 _atom_site_label
 _atom_site_symmetry_multiplicity
 _atom_site_fract_x
 _atom_site_fract_y
 _atom_site_fract_z
 _atom_site_fract_occupancy
 Ga  Ga1  1  0.50000  0.50000  0.25046  1
 Ga  Ga2  1  0.50000  0.50000  0.74954  1
 Ga  Ga3  1  0.00000  0.00000  0.00000  1
 Ge  Ge1  1  0.00000  0.00000  0.50000  1
 Nb  Nb1  1  0.50000  0.00000  0.37499  1
 Nb  Nb2  1  0.50000  0.00000  0.87568  1
 Nb  Nb3  1  0.75071  0.50000  0.00000  1
 Nb  Nb4  1  0.75059  0.50000  0.50000  1
 Nb  Nb5  1  0.00000  0.75055  0.25082  1
 Nb  Nb6  1  0.00000  0.75055  0.74918  1
 Nb  Nb7  1  0.50000  0.00000  0.12432  1
 Nb  Nb8  1  0.50000  0.00000  0.62501  1
 Nb  Nb9  1  0.24929  0.50000  0.00000  1
 Nb  Nb10  1  0.24941  0.50000  0.50000  1
 Nb  Nb11  1  0.00000  0.24945  0.25082  1
 Nb  Nb12  1  0.00000  0.24945  0.74918  1
