CIF file written using JARVIS-Tools package.
data_Ba2NdTlCu2O7
_symmetry_space_group_name_H-M  'Pmm2'
_cell_length_a       3.90947
_cell_length_b       3.93213
_cell_length_c       12.7357
_cell_angle_alpha    90
_cell_angle_beta     90
_cell_angle_gamma    90

_symmetry_Int_Tables_number  25
_chemical_formula_structural  Ba2NdTlCu2O7
_chemical_formula_sum  Ba2NdTlCu2O7
_cell_volume  195.7807568290795
_cell_formula_units_Z  1
loop_
  _symmetry_equiv_pos_site_id
 _symmetry_equiv_pos_as_xyz
 1  'x, y, z'
loop_
 _atom_site_type_symbol
 _atom_site_label
 _atom_site_symmetry_multiplicity
 _atom_site_fract_x
 _atom_site_fract_y
 _atom_site_fract_z
 _atom_site_fract_occupancy
 Ba  Ba1  1  0.50000  0.49843  0.79386  1
 Ba  Ba2  1  0.50000  0.49843  0.20614  1
 Cu  Cu1  1  0.00000  0.99823  0.63511  1
 Cu  Cu2  1  0.00000  0.99823  0.36489  1
 Nd  Nd1  1  0.50000  0.49752  0.50000  1
 O  O1  1  0.50000  0.99681  0.61943  1
 O  O2  1  0.00000  0.49824  0.62016  1
 O  O3  1  0.50000  0.99681  0.38057  1
 O  O4  1  0.00000  0.49824  0.37984  1
 O  O5  1  0.00000  0.01312  0.83253  1
 O  O6  1  0.00000  0.01312  0.16747  1
 O  O7  1  0.50000  0.60096  0.00000  1
 Tl  Tl1  1  0.00000  0.94007  0.00000  1
