CIF file written using JARVIS-Tools package.
data_Ba2Pr2Co4O11
_symmetry_space_group_name_H-M  'Pmmm'
_cell_length_a       3.8396
_cell_length_b       7.61078
_cell_length_c       7.97782
_cell_angle_alpha    90
_cell_angle_beta     90
_cell_angle_gamma    90

_symmetry_Int_Tables_number  47
_chemical_formula_structural  Ba2Pr2Co4O11
_chemical_formula_sum  Ba2Pr2Co4O
_cell_volume  233.13047598066956
_cell_formula_units_Z  1
loop_
  _symmetry_equiv_pos_site_id
 _symmetry_equiv_pos_as_xyz
 1  'x, y, z'
loop_
 _atom_site_type_symbol
 _atom_site_label
 _atom_site_symmetry_multiplicity
 _atom_site_fract_x
 _atom_site_fract_y
 _atom_site_fract_z
 _atom_site_fract_occupancy
 Ba  Ba1  1  0.50000  0.00000  0.24795  1
 Ba  Ba2  1  0.50000  0.00000  0.75205  1
 Co  Co1  1  0.00000  0.74828  0.00000  1
 Co  Co2  1  0.00000  0.25172  0.00000  1
 Co  Co3  1  0.00000  0.75247  0.50000  1
 Co  Co4  1  0.00000  0.24753  0.50000  1
 O  O1  1  0.50000  0.69745  0.00000  1
 O  O2  1  0.00000  0.00000  0.50000  1
 O  O3  1  0.00000  0.71346  0.23549  1
 O  O4  1  0.00000  0.71346  0.76451  1
 O  O5  1  0.50000  0.30255  0.00000  1
 O  O6  1  0.50000  0.73421  0.50000  1
 O  O7  1  0.00000  0.00000  0.00000  1
 O  O8  1  0.00000  0.28654  0.76451  1
 O  O9  1  0.50000  0.26579  0.50000  1
 O  O10  1  0.00000  0.28654  0.23549  1
 O  O11  1  0.00000  0.50000  0.50000  1
 Pr  Pr1  1  0.50000  0.50000  0.73230  1
 Pr  Pr2  1  0.50000  0.50000  0.26770  1
