CIF file written using JARVIS-Tools package.
data_Ba3Ho2MoO9
_symmetry_space_group_name_H-M  'C2/c'
_cell_length_a       6.04588
_cell_length_b       6.04589
_cell_length_c       14.7647
_cell_angle_alpha    89.564
_cell_angle_beta     89.564
_cell_angle_gamma    59.5524

_symmetry_Int_Tables_number  15
_chemical_formula_structural  Ba3Ho2MoO9
_chemical_formula_sum  Ba6Ho4Mo2O8
_cell_volume  465.24353159642436
_cell_formula_units_Z  2
loop_
  _symmetry_equiv_pos_site_id
 _symmetry_equiv_pos_as_xyz
 1  'x, y, z'
loop_
 _atom_site_type_symbol
 _atom_site_label
 _atom_site_symmetry_multiplicity
 _atom_site_fract_x
 _atom_site_fract_y
 _atom_site_fract_z
 _atom_site_fract_occupancy
 Ba  Ba1  1  0.66683  0.66523  0.08747  1
 Ba  Ba2  1  0.00202  -0.00202  0.75000  1
 Ba  Ba3  1  0.33477  0.33317  0.41253  1
 Ba  Ba4  1  0.33317  0.33477  0.91253  1
 Ba  Ba5  1  0.66523  0.66683  0.58747  1
 Ba  Ba6  1  -0.00202  0.00202  0.25000  1
 Ho  Ho1  1  0.33128  0.33394  0.16674  1
 Ho  Ho2  1  0.66872  0.66606  0.83326  1
 Ho  Ho3  1  0.33394  0.33128  0.66674  1
 Ho  Ho4  1  0.66606  0.66872  0.33326  1
 Mo  Mo1  1  -0.00000  -0.00000  0.50000  1
 Mo  Mo2  1  0.00000  0.00000  0.00000  1
 O  O1  1  0.56505  0.97329  0.73722  1
 O  O2  1  0.97329  0.56505  0.23722  1
 O  O3  1  0.28799  0.89035  0.91702  1
 O  O4  1  0.15609  0.14554  0.57592  1
 O  O5  1  0.02671  0.43495  0.76278  1
 O  O6  1  0.32305  0.80699  0.43542  1
 O  O7  1  0.71201  0.10965  0.08298  1
 O  O8  1  0.67695  0.19301  0.56458  1
 O  O9  1  0.84391  0.85446  0.42408  1
 O  O10  1  0.10965  0.71201  0.58298  1
 O  O11  1  0.43495  0.02671  0.26278  1
 O  O12  1  0.14554  0.15609  0.07592  1
 O  O13  1  0.48250  0.51750  0.75000  1
 O  O14  1  0.89035  0.28799  0.41702  1
 O  O15  1  0.85446  0.84391  0.92408  1
 O  O16  1  0.80699  0.32305  0.93542  1
 O  O17  1  0.19301  0.67695  0.06458  1
 O  O18  1  0.51750  0.48250  0.25000  1
