CIF file written using JARVIS-Tools package.
data_Al8BC5
_symmetry_space_group_name_H-M  'R-3m'
_cell_length_a       17.047
_cell_length_b       17.047
_cell_length_c       17.047
_cell_angle_alpha    11.3652
_cell_angle_beta     11.3652
_cell_angle_gamma    11.3652

_symmetry_Int_Tables_number  166
_chemical_formula_structural  Al8BC5
_chemical_formula_sum  Al8BC5
_cell_volume  167.14779649510055
_cell_formula_units_Z  1
loop_
  _symmetry_equiv_pos_site_id
 _symmetry_equiv_pos_as_xyz
 1  'x, y, z'
loop_
 _atom_site_type_symbol
 _atom_site_label
 _atom_site_symmetry_multiplicity
 _atom_site_fract_x
 _atom_site_fract_y
 _atom_site_fract_z
 _atom_site_fract_occupancy
 Al  Al1  1  0.35299  0.35299  0.35299  1
 Al  Al2  1  0.85446  0.85446  0.85446  1
 Al  Al3  1  0.14554  0.14554  0.14554  1
 Al  Al4  1  0.64701  0.64701  0.64701  1
 Al  Al5  1  0.43453  0.43453  0.43453  1
 Al  Al6  1  0.93542  0.93542  0.93542  1
 Al  Al7  1  0.06458  0.06458  0.06458  1
 Al  Al8  1  0.56547  0.56547  0.56547  1
 B  B1  1  0.50000  0.50000  0.50000  1
 C  C1  1  0.39096  0.39096  0.39096  1
 C  C2  1  0.89313  0.89313  0.89313  1
 C  C3  1  0.10687  0.10687  0.10687  1
 C  C4  1  0.60904  0.60904  0.60904  1
 C  C5  1  0.00000  0.00000  0.00000  1
