CIF file written using JARVIS-Tools package.
data_Ba4Na2W2O11
_symmetry_space_group_name_H-M  'Amm2'
_cell_length_a       5.93171
_cell_length_b       5.93171
_cell_length_c       8.59222
_cell_angle_alpha    90
_cell_angle_beta     90
_cell_angle_gamma    90.604

_symmetry_Int_Tables_number  38
_chemical_formula_structural  Ba4Na2W2O11
_chemical_formula_sum  Ba4Na2W2O
_cell_volume  302.30245711858015
_cell_formula_units_Z  1
loop_
  _symmetry_equiv_pos_site_id
 _symmetry_equiv_pos_as_xyz
 1  'x, y, z'
loop_
 _atom_site_type_symbol
 _atom_site_label
 _atom_site_symmetry_multiplicity
 _atom_site_fract_x
 _atom_site_fract_y
 _atom_site_fract_z
 _atom_site_fract_occupancy
 Ba  Ba1  1  0.01308  0.47837  0.27674  1
 Ba  Ba2  1  0.01308  0.47837  0.72326  1
 Ba  Ba3  1  0.52163  0.98692  0.27674  1
 Ba  Ba4  1  0.52163  0.98692  0.72326  1
 Na  Na1  1  0.51325  0.48675  0.50000  1
 Na  Na2  1  0.98507  0.01493  0.00000  1
 O  O1  1  0.24578  0.75422  0.50000  1
 O  O2  1  0.60970  0.79421  0.00000  1
 O  O3  1  0.78049  0.75742  0.50000  1
 O  O4  1  0.24258  0.21951  0.50000  1
 O  O5  1  0.78587  0.21413  0.50000  1
 O  O6  1  0.49254  0.50746  0.22353  1
 O  O7  1  0.49254  0.50746  0.77647  1
 O  O8  1  0.02202  0.97798  0.26967  1
 O  O9  1  0.72179  0.27821  0.00000  1
 O  O10  1  0.02202  0.97798  0.73033  1
 O  O11  1  0.20579  0.39030  0.00000  1
 W  W1  1  0.01944  0.98056  0.50000  1
 W  W2  1  0.50544  0.49456  0.00000  1
