CIF file written using JARVIS-Tools package.
data_Tm2MgSe4
_symmetry_space_group_name_H-M  'I-42d'
_cell_length_a       7.46985
_cell_length_b       7.46986
_cell_length_c       7.46985
_cell_angle_alpha    110.503
_cell_angle_beta     110.503
_cell_angle_gamma    107.427

_symmetry_Int_Tables_number  122
_chemical_formula_structural  Tm2MgSe4
_chemical_formula_sum  Tm4Mg2Se8
_cell_volume  320.5542383411065
_cell_formula_units_Z  2
loop_
  _symmetry_equiv_pos_site_id
 _symmetry_equiv_pos_as_xyz
 1  'x, y, z'
loop_
 _atom_site_type_symbol
 _atom_site_label
 _atom_site_symmetry_multiplicity
 _atom_site_fract_x
 _atom_site_fract_y
 _atom_site_fract_z
 _atom_site_fract_occupancy
 Mg  Mg1  1  0.00000  0.00000  0.00000  1
 Mg  Mg2  1  0.75000  0.25000  0.50000  1
 Se  Se1  1  0.51280  0.38020  0.26158  1
 Se  Se2  1  0.74878  0.48720  0.86740  1
 Se  Se3  1  0.11862  0.25122  0.73842  1
 Se  Se4  1  0.61980  0.88138  0.13260  1
 Se  Se5  1  0.23720  -0.00122  0.36740  1
 Se  Se6  1  0.00122  0.36862  0.23842  1
 Se  Se7  1  0.63138  0.86980  0.63260  1
 Se  Se8  1  0.13020  0.76280  0.76158  1
 Tm  Tm1  1  0.87500  0.75651  0.38151  1
 Tm  Tm2  1  0.50651  0.12500  0.88151  1
 Tm  Tm3  1  0.37500  0.49349  0.61849  1
 Tm  Tm4  1  0.24349  0.62500  0.11849  1
