CIF file written using JARVIS-Tools package.
data_CaHf8N8O4
_symmetry_space_group_name_H-M  'P1'
_cell_length_a       5.44415
_cell_length_b       5.59541
_cell_length_c       11.5059
_cell_angle_alpha    102.74
_cell_angle_beta     76.1342
_cell_angle_gamma    60.6217

_symmetry_Int_Tables_number  1
_chemical_formula_structural  CaHf8N8O4
_chemical_formula_sum  CaHf8N8O4
_cell_volume  271.8117547902262
_cell_formula_units_Z  1
loop_
  _symmetry_equiv_pos_site_id
 _symmetry_equiv_pos_as_xyz
 1  'x, y, z'
loop_
 _atom_site_type_symbol
 _atom_site_label
 _atom_site_symmetry_multiplicity
 _atom_site_fract_x
 _atom_site_fract_y
 _atom_site_fract_z
 _atom_site_fract_occupancy
 Ca  Ca1  1  0.74457  0.37739  0.14199  1
 Hf  Hf1  1  0.25624  0.21427  0.29570  1
 Hf  Hf2  1  0.11336  0.02094  0.77459  1
 Hf  Hf3  1  0.26603  0.55391  0.96780  1
 Hf  Hf4  1  0.65824  0.18170  0.55702  1
 Hf  Hf5  1  0.47335  0.71093  0.46691  1
 Hf  Hf6  1  0.95448  0.81771  0.26705  1
 Hf  Hf7  1  0.55722  0.93728  0.00110  1
 Hf  Hf8  1  0.86336  0.60963  0.70680  1
 N  N1  1  0.86834  0.23780  0.39375  1
 N  N2  1  0.50414  0.02420  0.40184  1
 N  N3  1  0.26658  0.60202  0.63283  1
 N  N4  1  0.20335  0.36183  0.12279  1
 N  N5  1  0.98624  0.18268  0.62767  1
 N  N6  1  0.79241  0.92137  0.12316  1
 N  N7  1  0.69751  0.11044  0.87557  1
 N  N8  1  0.40085  0.77792  0.86732  1
 O  O1  1  0.30463  0.58247  0.34159  1
 O  O2  1  0.02688  0.46796  0.86338  1
 O  O3  1  0.35511  0.78308  0.12551  1
 O  O4  1  0.60945  0.86486  0.62089  1
