CIF file written using JARVIS-Tools package.
data_Mn3Fe9C4
_symmetry_space_group_name_H-M  'P1'
_cell_length_a       4.43037
_cell_length_b       4.95022
_cell_length_c       6.69192
_cell_angle_alpha    89.9585
_cell_angle_beta     89.17
_cell_angle_gamma    90.0117

_symmetry_Int_Tables_number  1
_chemical_formula_structural  Mn3Fe9C4
_chemical_formula_sum  Mn3Fe9C4
_cell_volume  146.7469708980673
_cell_formula_units_Z  1
loop_
  _symmetry_equiv_pos_site_id
 _symmetry_equiv_pos_as_xyz
 1  'x, y, z'
loop_
 _atom_site_type_symbol
 _atom_site_label
 _atom_site_symmetry_multiplicity
 _atom_site_fract_x
 _atom_site_fract_y
 _atom_site_fract_z
 _atom_site_fract_occupancy
 C  C1  1  0.06329  0.88085  0.24822  1
 C  C2  1  0.43613  0.38211  0.25330  1
 C  C3  1  0.93776  0.11863  0.73857  1
 C  C4  1  0.56425  0.61945  0.76083  1
 Fe  Fe1  1  0.84306  0.82037  0.93226  1
 Fe  Fe2  1  0.67596  0.31404  0.93202  1
 Fe  Fe3  1  0.82427  0.81535  0.56539  1
 Fe  Fe4  1  0.32612  0.68286  0.43085  1
 Fe  Fe5  1  0.17357  0.18311  0.07095  1
 Fe  Fe6  1  0.83902  0.53541  0.25019  1
 Fe  Fe7  1  0.66008  0.03518  0.24868  1
 Fe  Fe8  1  0.16251  0.46306  0.75146  1
 Fe  Fe9  1  0.34122  0.96473  0.74973  1
 Mn  Mn1  1  0.33792  0.68250  0.06382  1
 Mn  Mn2  1  0.15898  0.18200  0.43885  1
 Mn  Mn3  1  0.65586  0.32036  0.56489  1
