CIF file written using JARVIS-Tools package.
data_Ce2MgS4
_symmetry_space_group_name_H-M  'I-42d'
_cell_length_a       7.33924
_cell_length_b       7.33925
_cell_length_c       7.33924
_cell_angle_alpha    111.328
_cell_angle_beta     111.328
_cell_angle_gamma    105.819

_symmetry_Int_Tables_number  122
_chemical_formula_structural  Ce2MgS4
_chemical_formula_sum  Ce4Mg2S8
_cell_volume  303.4010287193841
_cell_formula_units_Z  2
loop_
  _symmetry_equiv_pos_site_id
 _symmetry_equiv_pos_as_xyz
 1  'x, y, z'
loop_
 _atom_site_type_symbol
 _atom_site_label
 _atom_site_symmetry_multiplicity
 _atom_site_fract_x
 _atom_site_fract_y
 _atom_site_fract_z
 _atom_site_fract_occupancy
 Ce  Ce1  1  0.87500  0.75167  0.37667  1
 Ce  Ce2  1  0.50167  0.12500  0.87667  1
 Ce  Ce3  1  0.37500  0.49833  0.62333  1
 Ce  Ce4  1  0.24833  0.62500  0.12333  1
 Mg  Mg1  1  0.00000  0.00000  0.00000  1
 Mg  Mg2  1  0.75000  0.25000  0.50000  1
 S  S1  1  0.50432  0.37604  0.26771  1
 S  S2  1  0.76338  0.49568  0.87172  1
 S  S3  1  0.10834  0.23662  0.73229  1
 S  S4  1  0.62396  0.89166  0.12828  1
 S  S5  1  0.24568  0.01338  0.37172  1
 S  S6  1  0.98662  0.35834  0.23229  1
 S  S7  1  0.64166  0.87396  0.62828  1
 S  S8  1  0.12604  0.75432  0.76771  1
