CIF file written using JARVIS-Tools package.
data_La3SmFe4O12
_symmetry_space_group_name_H-M  'Pm'
_cell_length_a       7.7064
_cell_length_b       5.46532
_cell_length_c       5.47401
_cell_angle_alpha    89.7947
_cell_angle_beta     90
_cell_angle_gamma    90

_symmetry_Int_Tables_number  6
_chemical_formula_structural  La3SmFe4O12
_chemical_formula_sum  La3SmFe4O2
_cell_volume  230.55225110417217
_cell_formula_units_Z  1
loop_
  _symmetry_equiv_pos_site_id
 _symmetry_equiv_pos_as_xyz
 1  'x, y, z'
loop_
 _atom_site_type_symbol
 _atom_site_label
 _atom_site_symmetry_multiplicity
 _atom_site_fract_x
 _atom_site_fract_y
 _atom_site_fract_z
 _atom_site_fract_occupancy
 Fe  Fe1  1  0.24858  0.50080  0.99897  1
 Fe  Fe2  1  0.75183  0.99967  0.50105  1
 Fe  Fe3  1  0.75142  0.50080  0.99897  1
 Fe  Fe4  1  0.24817  0.99967  0.50105  1
 La  La1  1  0.00000  0.00391  0.96956  1
 La  La2  1  0.50000  0.50540  0.52768  1
 La  La3  1  0.50000  0.99442  0.03113  1
 O  O1  1  0.21444  0.22209  0.22609  1
 O  O2  1  0.50000  0.43867  0.99218  1
 O  O3  1  0.71788  0.78438  0.78029  1
 O  O4  1  0.28115  0.72241  0.28213  1
 O  O5  1  0.79065  0.28316  0.71294  1
 O  O6  1  0.00000  0.55938  0.01637  1
 O  O7  1  0.78556  0.22209  0.22609  1
 O  O8  1  0.20935  0.28316  0.71294  1
 O  O9  1  0.28212  0.78438  0.78029  1
 O  O10  1  0.00000  0.92100  0.50493  1
 O  O11  1  0.71885  0.72241  0.28213  1
 O  O12  1  0.50000  0.06143  0.49677  1
 Sm  Sm1  1  0.00000  0.49077  0.45844  1
