CIF file written using JARVIS-Tools package.
data_As2SeS2
_symmetry_space_group_name_H-M  'P2_1/c'
_cell_length_a       9.50218
_cell_length_b       4.41487
_cell_length_c       12.1086
_cell_angle_alpha    72.7848
_cell_angle_beta     90
_cell_angle_gamma    90

_symmetry_Int_Tables_number  14
_chemical_formula_structural  As2SeS2
_chemical_formula_sum  As8Se4S8
_cell_volume  485.21120485456026
_cell_formula_units_Z  4
loop_
  _symmetry_equiv_pos_site_id
 _symmetry_equiv_pos_as_xyz
 1  'x, y, z'
loop_
 _atom_site_type_symbol
 _atom_site_label
 _atom_site_symmetry_multiplicity
 _atom_site_fract_x
 _atom_site_fract_y
 _atom_site_fract_z
 _atom_site_fract_occupancy
 As  As1  1  0.36886  0.44326  0.27543  1
 As  As2  1  0.13114  0.44326  0.77543  1
 As  As3  1  0.63114  0.55674  0.72457  1
 As  As4  1  0.86886  0.55674  0.22457  1
 As  As5  1  0.17300  0.79835  0.01382  1
 As  As6  1  0.32700  0.79835  0.51382  1
 As  As7  1  0.82700  0.20165  -0.01382  1
 As  As8  1  0.67300  0.20165  0.48618  1
 S  S1  1  0.12838  0.87895  0.61472  1
 S  S2  1  0.37162  0.87895  0.11472  1
 S  S3  1  0.70097  0.43667  0.10135  1
 S  S4  1  0.79903  0.43667  0.60135  1
 S  S5  1  0.29903  0.56333  0.89865  1
 S  S6  1  0.87162  0.12105  0.38528  1
 S  S7  1  0.62838  0.12105  0.88528  1
 S  S8  1  0.20097  0.56333  0.39865  1
 Se  Se1  1  0.08338  0.31441  0.16316  1
 Se  Se2  1  0.41662  0.31441  0.66316  1
 Se  Se3  1  0.58338  0.68559  0.33684  1
 Se  Se4  1  0.91662  0.68559  0.83684  1
