CIF file written using JARVIS-Tools package.
data_LiFe2Rh3O8
_symmetry_space_group_name_H-M  'R3m'
_cell_length_a       5.91314
_cell_length_b       5.91314
_cell_length_c       5.91313
_cell_angle_alpha    61.2558
_cell_angle_beta     61.2559
_cell_angle_gamma    61.2558

_symmetry_Int_Tables_number  160
_chemical_formula_structural  LiFe2Rh3O8
_chemical_formula_sum  LiFe2Rh3O8
_cell_volume  150.32545288370113
_cell_formula_units_Z  1
loop_
  _symmetry_equiv_pos_site_id
 _symmetry_equiv_pos_as_xyz
 1  'x, y, z'
loop_
 _atom_site_type_symbol
 _atom_site_label
 _atom_site_symmetry_multiplicity
 _atom_site_fract_x
 _atom_site_fract_y
 _atom_site_fract_z
 _atom_site_fract_occupancy
 Fe  Fe1  1  0.62353  0.62353  0.62353  1
 Fe  Fe2  1  0.00141  0.00141  0.00141  1
 Li  Li1  1  0.24966  0.24966  0.24966  1
 O  O1  1  0.38495  0.38495  0.38495  1
 O  O2  1  0.39646  0.39646  0.83635  1
 O  O3  1  0.83635  0.39646  0.39646  1
 O  O4  1  0.39646  0.83635  0.39646  1
 O  O5  1  0.86732  0.86732  0.86732  1
 O  O6  1  0.85830  0.85830  0.40172  1
 O  O7  1  0.40172  0.85830  0.85830  1
 O  O8  1  0.85830  0.40172  0.85830  1
 Rh  Rh1  1  0.62359  0.62359  0.12834  1
 Rh  Rh2  1  0.12834  0.62359  0.62359  1
 Rh  Rh3  1  0.62359  0.12834  0.62359  1
