CIF file written using JARVIS-Tools package.
data_TiCrAgS4
_symmetry_space_group_name_H-M  'P2/m'
_cell_length_a       3.47746
_cell_length_b       5.95255
_cell_length_c       12.6213
_cell_angle_alpha    88.3936
_cell_angle_beta     90
_cell_angle_gamma    90

_symmetry_Int_Tables_number  10
_chemical_formula_structural  TiCrAgS4
_chemical_formula_sum  Ti2Cr2Ag2S8
_cell_volume  261.15411193845296
_cell_formula_units_Z  2
loop_
  _symmetry_equiv_pos_site_id
 _symmetry_equiv_pos_as_xyz
 1  'x, y, z'
loop_
 _atom_site_type_symbol
 _atom_site_label
 _atom_site_symmetry_multiplicity
 _atom_site_fract_x
 _atom_site_fract_y
 _atom_site_fract_z
 _atom_site_fract_occupancy
 Ag  Ag1  1  0.50000  0.50000  0.00000  1
 Ag  Ag2  1  0.00000  0.00000  0.50000  1
 Cr  Cr1  1  0.00000  0.01654  0.75244  1
 Cr  Cr2  1  0.00000  0.98346  0.24756  1
 S  S1  1  0.50000  0.15349  0.86582  1
 S  S2  1  0.50000  0.84651  0.13418  1
 S  S3  1  0.00000  0.65729  0.36735  1
 S  S4  1  0.00000  0.34271  0.63265  1
 S  S5  1  0.00000  0.66847  0.85291  1
 S  S6  1  0.00000  0.33153  0.14709  1
 S  S7  1  0.50000  0.15618  0.34977  1
 S  S8  1  0.50000  0.84382  0.65023  1
 Ti  Ti1  1  0.50000  0.53128  0.25156  1
 Ti  Ti2  1  0.50000  0.46872  0.74844  1
