CIF file written using JARVIS-Tools package.
data_AlCuSnS4
_symmetry_space_group_name_H-M  'Imma'
_cell_length_a       7.26365
_cell_length_b       7.26365
_cell_length_c       7.26365
_cell_angle_alpha    120.646
_cell_angle_beta     119.293
_cell_angle_gamma    90.0562

_symmetry_Int_Tables_number  74
_chemical_formula_structural  AlCuSnS4
_chemical_formula_sum  Al2Cu2Sn2S8
_cell_volume  271.064185998097
_cell_formula_units_Z  2
loop_
  _symmetry_equiv_pos_site_id
 _symmetry_equiv_pos_as_xyz
 1  'x, y, z'
loop_
 _atom_site_type_symbol
 _atom_site_label
 _atom_site_symmetry_multiplicity
 _atom_site_fract_x
 _atom_site_fract_y
 _atom_site_fract_z
 _atom_site_fract_occupancy
 Al  Al1  1  -0.00000  -0.00000  0.50000  1
 Al  Al2  1  0.00000  0.50000  0.00000  1
 Cu  Cu1  1  0.38415  0.63415  0.75000  1
 Cu  Cu2  1  0.61585  0.36585  0.25000  1
 S  S1  1  0.23925  0.73716  0.99791  1
 S  S2  1  0.23925  0.24135  0.50209  1
 S  S3  1  0.22791  0.74997  0.47794  1
 S  S4  1  0.77203  0.74997  0.02206  1
 S  S5  1  0.76075  0.26284  0.00209  1
 S  S6  1  0.76075  0.75865  0.49791  1
 S  S7  1  0.77209  0.25003  0.52206  1
 S  S8  1  0.22797  0.25003  0.97794  1
 Sn  Sn1  1  0.00000  0.00000  0.00000  1
 Sn  Sn2  1  0.50000  -0.00000  0.50000  1
