CIF file written using JARVIS-Tools package.
data_HgAsO4
_symmetry_space_group_name_H-M  'P2_1/c'
_cell_length_a       9.9368
_cell_length_b       4.82998
_cell_length_c       8.50748
_cell_angle_alpha    57.626
_cell_angle_beta     90
_cell_angle_gamma    90

_symmetry_Int_Tables_number  14
_chemical_formula_structural  HgAsO4
_chemical_formula_sum  Hg4As4O6
_cell_volume  344.8491495543354
_cell_formula_units_Z  4
loop_
  _symmetry_equiv_pos_site_id
 _symmetry_equiv_pos_as_xyz
 1  'x, y, z'
loop_
 _atom_site_type_symbol
 _atom_site_label
 _atom_site_symmetry_multiplicity
 _atom_site_fract_x
 _atom_site_fract_y
 _atom_site_fract_z
 _atom_site_fract_occupancy
 As  As1  1  0.80542  0.51142  -0.04025  1
 As  As2  1  0.69458  0.51142  0.45975  1
 As  As3  1  0.19458  0.48858  0.04025  1
 As  As4  1  0.30542  0.48858  0.54025  1
 Hg  Hg1  1  0.99620  0.18356  0.75662  1
 Hg  Hg2  1  0.50380  0.18356  0.25662  1
 Hg  Hg3  1  0.00380  0.81644  0.24338  1
 Hg  Hg4  1  0.49620  0.81644  0.74338  1
 O  O1  1  0.85678  0.84620  -0.02755  1
 O  O2  1  0.64322  0.84620  0.47245  1
 O  O3  1  0.14322  0.15380  0.02755  1
 O  O4  1  0.36802  0.53899  0.04279  1
 O  O5  1  0.88202  0.58003  0.76068  1
 O  O6  1  0.61798  0.58003  0.26068  1
 O  O7  1  0.35678  0.15380  0.52755  1
 O  O8  1  0.15637  0.82334  0.82212  1
 O  O9  1  0.84363  0.17666  0.17788  1
 O  O10  1  0.65637  0.17666  0.67788  1
 O  O11  1  0.11798  0.41997  0.23932  1
 O  O12  1  0.34363  0.82334  0.32212  1
 O  O13  1  0.63198  0.46101  0.95721  1
 O  O14  1  0.86802  0.46101  0.45721  1
 O  O15  1  0.38202  0.41997  0.73932  1
 O  O16  1  0.13198  0.53899  0.54279  1
