CIF file written using JARVIS-Tools package.
data_GaFeNiO4
_symmetry_space_group_name_H-M  'Imma'
_cell_length_a       5.88455
_cell_length_b       5.88456
_cell_length_c       5.88456
_cell_angle_alpha    120.33
_cell_angle_beta     119.727
_cell_angle_gamma    89.952

_symmetry_Int_Tables_number  74
_chemical_formula_structural  GaFeNiO4
_chemical_formula_sum  Ga2Fe2Ni2O8
_cell_volume  144.02092593755427
_cell_formula_units_Z  2
loop_
  _symmetry_equiv_pos_site_id
 _symmetry_equiv_pos_as_xyz
 1  'x, y, z'
loop_
 _atom_site_type_symbol
 _atom_site_label
 _atom_site_symmetry_multiplicity
 _atom_site_fract_x
 _atom_site_fract_y
 _atom_site_fract_z
 _atom_site_fract_occupancy
 Fe  Fe1  1  0.11896  0.86896  0.25000  1
 Fe  Fe2  1  0.88104  0.13104  0.75000  1
 Ga  Ga1  1  0.50000  0.50000  0.00000  1
 Ga  Ga2  1  -0.00000  0.50000  0.50000  1
 Ni  Ni1  1  0.50000  0.50000  0.50000  1
 Ni  Ni2  1  0.50000  0.00000  0.00000  1
 O  O1  1  0.25720  0.73873  0.98153  1
 O  O2  1  0.25720  0.27567  0.51847  1
 O  O3  1  0.25451  0.74116  0.51335  1
 O  O4  1  0.72782  0.74116  0.98665  1
 O  O5  1  0.74280  0.26127  0.01847  1
 O  O6  1  0.74280  0.72433  0.48153  1
 O  O7  1  0.74549  0.25884  0.48665  1
 O  O8  1  0.27218  0.25884  0.01335  1
