CIF file written using JARVIS-Tools package.
data_Ce4H11
_symmetry_space_group_name_H-M  'I4/mmm'
_cell_length_a       6.67494
_cell_length_b       6.67494
_cell_length_c       6.67495
_cell_angle_alpha    131.714
_cell_angle_beta     131.714
_cell_angle_gamma    70.6812

_symmetry_Int_Tables_number  139
_chemical_formula_structural  Ce4H11
_chemical_formula_sum  Ce4H
_cell_volume  162.34100166909835
_cell_formula_units_Z  1
loop_
  _symmetry_equiv_pos_site_id
 _symmetry_equiv_pos_as_xyz
 1  'x, y, z'
loop_
 _atom_site_type_symbol
 _atom_site_label
 _atom_site_symmetry_multiplicity
 _atom_site_fract_x
 _atom_site_fract_y
 _atom_site_fract_z
 _atom_site_fract_occupancy
 Ce  Ce1  1  0.50000  -0.00000  0.50000  1
 Ce  Ce2  1  0.25836  0.25836  -0.00000  1
 Ce  Ce3  1  -0.00000  0.50000  0.50000  1
 Ce  Ce4  1  0.74164  0.74164  0.00000  1
 H  H1  1  0.64356  0.11451  -0.00000  1
 H  H2  1  0.35644  0.35644  0.47095  1
 H  H3  1  0.11451  0.64356  0.00000  1
 H  H4  1  0.88549  0.88549  0.52905  1
 H  H5  1  0.88549  0.35644  0.00000  1
 H  H6  1  0.64356  0.64356  0.52905  1
 H  H7  1  0.35644  0.88549  -0.00000  1
 H  H8  1  0.11451  0.11451  0.47095  1
 H  H9  1  0.75000  0.25000  0.50000  1
 H  H10  1  0.50000  0.50000  0.00000  1
 H  H11  1  0.25000  0.75000  0.50000  1
