CIF file written using JARVIS-Tools package.
data_KMn8O16
_symmetry_space_group_name_H-M  'P-1'
_cell_length_a       5.7141
_cell_length_b       7.07136
_cell_length_c       7.07385
_cell_angle_alpha    87.6255
_cell_angle_beta     101.656
_cell_angle_gamma    101.667

_symmetry_Int_Tables_number  2
_chemical_formula_structural  KMn8O16
_chemical_formula_sum  KMn8O6
_cell_volume  274.15014258642236
_cell_formula_units_Z  1
loop_
  _symmetry_equiv_pos_site_id
 _symmetry_equiv_pos_as_xyz
 1  'x, y, z'
loop_
 _atom_site_type_symbol
 _atom_site_label
 _atom_site_symmetry_multiplicity
 _atom_site_fract_x
 _atom_site_fract_y
 _atom_site_fract_z
 _atom_site_fract_occupancy
 K  K1  1  0.00000  0.00000  0.00000  1
 Mn  Mn1  1  0.57525  0.81888  0.48171  1
 Mn  Mn2  1  0.07578  0.81827  0.48514  1
 Mn  Mn3  1  0.92422  0.18173  0.51486  1
 Mn  Mn4  1  0.42475  0.18112  0.51829  1
 Mn  Mn5  1  0.16698  0.48543  0.18171  1
 Mn  Mn6  1  0.66557  0.48182  0.18110  1
 Mn  Mn7  1  0.33443  0.51818  0.81890  1
 Mn  Mn8  1  0.83302  0.51457  0.81829  1
 O  O1  1  0.67354  0.04602  0.64391  1
 O  O2  1  0.17176  0.04632  0.64497  1
 O  O3  1  0.82824  0.95368  0.35503  1
 O  O4  1  0.83285  0.70867  0.62516  1
 O  O5  1  0.65059  0.64386  0.95374  1
 O  O6  1  0.14845  0.64502  0.95322  1
 O  O7  1  0.32646  0.95398  0.35609  1
 O  O8  1  0.52018  0.37727  0.70713  1
 O  O9  1  0.97829  0.62523  0.29117  1
 O  O10  1  0.47982  0.62273  0.29287  1
 O  O11  1  0.85155  0.35498  0.04678  1
 O  O12  1  0.02171  0.37477  0.70883  1
 O  O13  1  0.66739  0.29378  0.37821  1
 O  O14  1  0.16715  0.29133  0.37484  1
 O  O15  1  0.34941  0.35614  0.04626  1
 O  O16  1  0.33261  0.70622  0.62179  1
