CIF file written using JARVIS-Tools package.
data_Pr2MgSe4
_symmetry_space_group_name_H-M  'Fd-3m'
_cell_length_a       8.49051
_cell_length_b       8.49051
_cell_length_c       8.49051
_cell_angle_alpha    60
_cell_angle_beta     60
_cell_angle_gamma    60

_symmetry_Int_Tables_number  227
_chemical_formula_structural  Pr2MgSe4
_chemical_formula_sum  Pr4Mg2Se8
_cell_volume  432.79885706189424
_cell_formula_units_Z  2
loop_
  _symmetry_equiv_pos_site_id
 _symmetry_equiv_pos_as_xyz
 1  'x, y, z'
loop_
 _atom_site_type_symbol
 _atom_site_label
 _atom_site_symmetry_multiplicity
 _atom_site_fract_x
 _atom_site_fract_y
 _atom_site_fract_z
 _atom_site_fract_occupancy
 Mg  Mg1  1  0.50000  0.50000  0.50000  1
 Mg  Mg2  1  0.75000  0.75000  0.75000  1
 Pr  Pr1  1  0.12500  0.62500  0.12500  1
 Pr  Pr2  1  0.12500  0.12500  0.62500  1
 Pr  Pr3  1  0.62500  0.12500  0.12500  1
 Pr  Pr4  1  0.12500  0.12500  0.12500  1
 Se  Se1  1  0.87657  0.87657  0.87657  1
 Se  Se2  1  0.37028  0.87657  0.87657  1
 Se  Se3  1  0.87657  0.37028  0.87657  1
 Se  Se4  1  0.87657  0.87657  0.37028  1
 Se  Se5  1  0.37343  0.37343  0.87972  1
 Se  Se6  1  0.37343  0.87972  0.37343  1
 Se  Se7  1  0.87972  0.37343  0.37343  1
 Se  Se8  1  0.37343  0.37343  0.37343  1
