CIF file written using JARVIS-Tools package.
data_Ag3PO4
_symmetry_space_group_name_H-M  'R3c'
_cell_length_a       6.05897
_cell_length_b       6.05898
_cell_length_c       6.05898
_cell_angle_alpha    89.2973
_cell_angle_beta     89.2972
_cell_angle_gamma    89.2973

_symmetry_Int_Tables_number  161
_chemical_formula_structural  Ag3PO4
_chemical_formula_sum  Ag6P2O8
_cell_volume  222.38202217997528
_cell_formula_units_Z  2
loop_
  _symmetry_equiv_pos_site_id
 _symmetry_equiv_pos_as_xyz
 1  'x, y, z'
loop_
 _atom_site_type_symbol
 _atom_site_label
 _atom_site_symmetry_multiplicity
 _atom_site_fract_x
 _atom_site_fract_y
 _atom_site_fract_z
 _atom_site_fract_occupancy
 Ag  Ag1  1  0.19112  0.00311  0.49648  1
 Ag  Ag2  1  0.00311  0.49648  0.19112  1
 Ag  Ag3  1  0.49648  0.19112  0.00311  1
 Ag  Ag4  1  0.50311  0.69112  -0.00352  1
 Ag  Ag5  1  0.69112  -0.00352  0.50311  1
 Ag  Ag6  1  -0.00352  0.50311  0.69112  1
 O  O1  1  0.15096  0.15096  0.15096  1
 O  O2  1  0.15500  0.87179  0.83956  1
 O  O3  1  0.83956  0.15500  0.87179  1
 O  O4  1  0.87179  0.83956  0.15500  1
 O  O5  1  0.37179  0.65500  0.33956  1
 O  O6  1  0.65500  0.33956  0.37179  1
 O  O7  1  0.65096  0.65096  0.65096  1
 O  O8  1  0.33956  0.37179  0.65500  1
 P  P1  1  0.50098  0.50098  0.50098  1
 P  P2  1  0.00098  0.00098  0.00098  1
