CIF file written using JARVIS-Tools package.
data_CrCo3N3
_symmetry_space_group_name_H-M  'P6_3/mmc'
_cell_length_a       6.34019
_cell_length_b       6.34227
_cell_length_c       3.88524
_cell_angle_alpha    90
_cell_angle_beta     90
_cell_angle_gamma    120.021

_symmetry_Int_Tables_number  194
_chemical_formula_structural  CrCo3N3
_chemical_formula_sum  Cr2Co6N6
_cell_volume  135.27000135669002
_cell_formula_units_Z  2
loop_
  _symmetry_equiv_pos_site_id
 _symmetry_equiv_pos_as_xyz
 1  'x, y, z'
loop_
 _atom_site_type_symbol
 _atom_site_label
 _atom_site_symmetry_multiplicity
 _atom_site_fract_x
 _atom_site_fract_y
 _atom_site_fract_z
 _atom_site_fract_occupancy
 Co  Co1  1  0.81923  0.63847  0.25000  1
 Co  Co2  1  0.81917  0.18074  0.25000  1
 Co  Co3  1  0.36147  0.18077  0.25000  1
 Co  Co4  1  0.18077  0.36153  0.75000  1
 Co  Co5  1  0.18083  0.81926  0.75000  1
 Co  Co6  1  0.63853  0.81923  0.75000  1
 Cr  Cr1  1  0.66668  0.33334  0.75000  1
 Cr  Cr2  1  0.33332  0.66666  0.25000  1
 N  N1  1  0.83064  0.66129  0.75000  1
 N  N2  1  0.83058  0.16933  0.75000  1
 N  N3  1  0.33865  0.16936  0.75000  1
 N  N4  1  0.16936  0.33871  0.25000  1
 N  N5  1  0.16942  0.83067  0.25000  1
 N  N6  1  0.66135  0.83064  0.25000  1
