CIF file written using JARVIS-Tools package.
data_Sr2IrN3
_symmetry_space_group_name_H-M  'C2/c'
_cell_length_a       6.28347
_cell_length_b       11.302
_cell_length_c       12.461
_cell_angle_alpha    90
_cell_angle_beta     92.4642
_cell_angle_gamma    154.072

_symmetry_Int_Tables_number  15
_chemical_formula_structural  Sr2IrN3
_chemical_formula_sum  Sr8Ir4N2
_cell_volume  385.0517853548282
_cell_formula_units_Z  4
loop_
  _symmetry_equiv_pos_site_id
 _symmetry_equiv_pos_as_xyz
 1  'x, y, z'
loop_
 _atom_site_type_symbol
 _atom_site_label
 _atom_site_symmetry_multiplicity
 _atom_site_fract_x
 _atom_site_fract_y
 _atom_site_fract_z
 _atom_site_fract_occupancy
 Ir  Ir1  1  0.40887  0.69920  0.83217  1
 Ir  Ir2  1  0.40887  0.70967  0.33217  1
 Ir  Ir3  1  0.59113  0.30080  0.16783  1
 Ir  Ir4  1  0.59113  0.29033  0.66783  1
 N  N1  1  0.49379  0.84198  0.95806  1
 N  N2  1  0.49379  0.65181  0.45806  1
 N  N3  1  0.50621  0.15802  0.04194  1
 N  N4  1  0.58549  0.46200  0.13291  1
 N  N5  1  0.41451  0.87651  0.36709  1
 N  N6  1  0.41451  0.53800  0.86709  1
 N  N7  1  0.58549  0.12349  0.63291  1
 N  N8  1  -0.00000  0.38049  0.25000  1
 N  N9  1  0.00000  0.61951  0.75000  1
 N  N10  1  -0.00000  0.99949  0.25000  1
 N  N11  1  0.50621  0.34819  0.54194  1
 N  N12  1  0.00000  0.00051  0.75000  1
 Sr  Sr1  1  0.53313  0.65833  0.07552  1
 Sr  Sr2  1  0.46687  0.12521  0.42448  1
 Sr  Sr3  1  0.46687  0.34167  0.92448  1
 Sr  Sr4  1  0.53313  0.87479  0.57552  1
 Sr  Sr5  1  0.44008  0.41990  0.35574  1
 Sr  Sr6  1  0.55992  0.97982  0.14426  1
 Sr  Sr7  1  0.55992  0.58010  0.64426  1
 Sr  Sr8  1  0.44008  0.02018  0.85574  1
