CIF file written using JARVIS-Tools package.
data_TaSeN
_symmetry_space_group_name_H-M  'C2/m'
_cell_length_a       7.08207
_cell_length_b       3.93455
_cell_length_c       9.26974
_cell_angle_alpha    90
_cell_angle_beta     69.1482
_cell_angle_gamma    73.8722

_symmetry_Int_Tables_number  12
_chemical_formula_structural  TaSeN
_chemical_formula_sum  Ta4Se4N4
_cell_volume  230.4706767983626
_cell_formula_units_Z  4
loop_
  _symmetry_equiv_pos_site_id
 _symmetry_equiv_pos_as_xyz
 1  'x, y, z'
loop_
 _atom_site_type_symbol
 _atom_site_label
 _atom_site_symmetry_multiplicity
 _atom_site_fract_x
 _atom_site_fract_y
 _atom_site_fract_z
 _atom_site_fract_occupancy
 N  N1  1  0.91177  0.54412  0.87906  1
 N  N2  1  0.08823  0.45588  0.12094  1
 N  N3  1  0.52557  0.23721  0.88600  1
 N  N4  1  0.47443  0.76279  0.11400  1
 Se  Se1  1  0.80757  0.59622  0.55529  1
 Se  Se2  1  0.19243  0.40378  0.44471  1
 Se  Se3  1  0.32482  0.83759  0.70360  1
 Se  Se4  1  0.67518  0.16241  0.29640  1
 Ta  Ta1  1  0.63535  0.68232  0.85537  1
 Ta  Ta2  1  0.36465  0.31768  0.14463  1
 Ta  Ta3  1  0.21002  0.39499  0.88403  1
 Ta  Ta4  1  0.78998  0.60501  0.11597  1
