CIF file written using JARVIS-Tools package.
data_MgVGaS4
_symmetry_space_group_name_H-M  'Imm2'
_cell_length_a       7.25904
_cell_length_b       7.33428
_cell_length_c       7.33432
_cell_angle_alpha    57.9251
_cell_angle_beta     60.3389
_cell_angle_gamma    60.3376

_symmetry_Int_Tables_number  44
_chemical_formula_structural  MgVGaS4
_chemical_formula_sum  Mg2V2Ga2S8
_cell_volume  272.86076753191156
_cell_formula_units_Z  2
loop_
  _symmetry_equiv_pos_site_id
 _symmetry_equiv_pos_as_xyz
 1  'x, y, z'
loop_
 _atom_site_type_symbol
 _atom_site_label
 _atom_site_symmetry_multiplicity
 _atom_site_fract_x
 _atom_site_fract_y
 _atom_site_fract_z
 _atom_site_fract_occupancy
 Ga  Ga1  1  0.50729  0.49066  0.49067  1
 Ga  Ga2  1  0.01139  0.49065  0.49064  1
 Mg  Mg1  1  0.86661  0.88338  0.88341  1
 Mg  Mg2  1  0.11814  0.13187  0.13183  1
 S  S1  1  0.75414  0.73712  0.73713  1
 S  S2  1  0.26811  0.24251  0.72127  1
 S  S3  1  0.26810  0.72130  0.24248  1
 S  S4  1  0.71153  0.25956  0.25957  1
 S  S5  1  0.72930  0.29106  0.75034  1
 S  S6  1  0.27161  0.73713  0.73713  1
 S  S7  1  0.26936  0.25955  0.25955  1
 S  S8  1  0.72930  0.75032  0.29108  1
 V  V1  1  0.49756  0.52369  0.98120  1
 V  V2  1  0.49756  0.98120  0.52369  1
