CIF file written using JARVIS-Tools package.
data_YMgTiS4
_symmetry_space_group_name_H-M  'Imma'
_cell_length_a       7.72657
_cell_length_b       7.59883
_cell_length_c       7.59881
_cell_angle_alpha    58.4287
_cell_angle_beta     59.4422
_cell_angle_gamma    59.4411

_symmetry_Int_Tables_number  74
_chemical_formula_structural  YMgTiS4
_chemical_formula_sum  Y2Mg2Ti2S8
_cell_volume  308.9651376606021
_cell_formula_units_Z  2
loop_
  _symmetry_equiv_pos_site_id
 _symmetry_equiv_pos_as_xyz
 1  'x, y, z'
loop_
 _atom_site_type_symbol
 _atom_site_label
 _atom_site_symmetry_multiplicity
 _atom_site_fract_x
 _atom_site_fract_y
 _atom_site_fract_z
 _atom_site_fract_occupancy
 Mg  Mg1  1  0.87804  0.87196  0.87196  1
 Mg  Mg2  1  0.12196  0.12804  0.12804  1
 S  S1  1  0.72378  0.75189  0.75189  1
 S  S2  1  0.26789  0.23124  0.73299  1
 S  S3  1  0.26789  0.73299  0.23123  1
 S  S4  1  0.72756  0.24811  0.24811  1
 S  S5  1  0.73211  0.26701  0.76877  1
 S  S6  1  0.27244  0.75189  0.75189  1
 S  S7  1  0.27622  0.24811  0.24811  1
 S  S8  1  0.73211  0.76876  0.26701  1
 Ti  Ti1  1  0.50000  0.50000  1.00000  1
 Ti  Ti2  1  0.50000  1.00000  0.50000  1
 Y  Y1  1  0.50000  0.50000  0.50000  1
 Y  Y2  1  0.00000  0.50000  0.50000  1
