CIF file written using JARVIS-Tools package.
data_AlCu7O12
_symmetry_space_group_name_H-M  'Im-3'
_cell_length_a       6.25644
_cell_length_b       6.25644
_cell_length_c       6.25644
_cell_angle_alpha    109.471
_cell_angle_beta     109.471
_cell_angle_gamma    109.471

_symmetry_Int_Tables_number  204
_chemical_formula_structural  AlCu7O12
_chemical_formula_sum  AlCu7O2
_cell_volume  188.52131287856898
_cell_formula_units_Z  1
loop_
  _symmetry_equiv_pos_site_id
 _symmetry_equiv_pos_as_xyz
 1  'x, y, z'
loop_
 _atom_site_type_symbol
 _atom_site_label
 _atom_site_symmetry_multiplicity
 _atom_site_fract_x
 _atom_site_fract_y
 _atom_site_fract_z
 _atom_site_fract_occupancy
 Al  Al1  1  0.00000  0.00000  0.00000  1
 Cu  Cu1  1  0.00000  0.00000  0.50000  1
 Cu  Cu2  1  -0.00000  0.50000  -0.00000  1
 Cu  Cu3  1  0.50000  0.00000  -0.00000  1
 Cu  Cu4  1  0.50000  0.50000  0.50000  1
 Cu  Cu5  1  -0.00000  0.50000  0.50000  1
 Cu  Cu6  1  0.50000  0.00000  0.50000  1
 Cu  Cu7  1  0.50000  0.50000  -0.00000  1
 O  O1  1  0.29928  0.13319  0.83391  1
 O  O2  1  0.16609  0.70072  0.86681  1
 O  O3  1  0.70072  0.53464  0.83391  1
 O  O4  1  0.46536  0.16609  0.29928  1
 O  O5  1  0.70072  0.86681  0.16609  1
 O  O6  1  0.29928  0.46536  0.16609  1
 O  O7  1  0.86681  0.16609  0.70072  1
 O  O8  1  0.83391  0.70072  0.53464  1
 O  O9  1  0.16609  0.29928  0.46536  1
 O  O10  1  0.53464  0.83391  0.70072  1
 O  O11  1  0.83391  0.29928  0.13319  1
 O  O12  1  0.13319  0.83391  0.29928  1
