CIF file written using JARVIS-Tools package.
data_ZrCrAgS4
_symmetry_space_group_name_H-M  'Ima2'
_cell_length_a       7.38766
_cell_length_b       7.38766
_cell_length_c       10.5469
_cell_angle_alpha    89.1903
_cell_angle_beta     89.1903
_cell_angle_gamma    88.8944

_symmetry_Int_Tables_number  46
_chemical_formula_structural  ZrCrAgS4
_chemical_formula_sum  Zr4Cr4Ag4S6
_cell_volume  575.4020457481325
_cell_formula_units_Z  4
loop_
  _symmetry_equiv_pos_site_id
 _symmetry_equiv_pos_as_xyz
 1  'x, y, z'
loop_
 _atom_site_type_symbol
 _atom_site_label
 _atom_site_symmetry_multiplicity
 _atom_site_fract_x
 _atom_site_fract_y
 _atom_site_fract_z
 _atom_site_fract_occupancy
 Ag  Ag1  1  0.98512  0.51520  0.25016  1
 Ag  Ag2  1  0.01520  0.98512  0.00016  1
 Ag  Ag3  1  0.48512  0.01520  0.75016  1
 Ag  Ag4  1  0.51520  0.48512  0.50016  1
 Cr  Cr1  1  0.00006  0.75007  0.62507  1
 Cr  Cr2  1  0.75007  0.50006  0.87507  1
 Cr  Cr3  1  0.25007  0.00006  0.37507  1
 Cr  Cr4  1  0.50006  0.25007  0.12507  1
 S  S1  1  0.27236  0.01621  0.14427  1
 S  S2  1  0.49280  0.76967  0.36859  1
 S  S3  1  0.72794  0.48384  0.10592  1
 S  S4  1  0.99280  0.26967  0.86859  1
 S  S5  1  0.01621  0.77236  0.39427  1
 S  S6  1  0.98384  0.72794  0.85592  1
 S  S7  1  0.00701  0.23013  0.38121  1
 S  S8  1  0.76967  0.99280  0.61859  1
 S  S9  1  0.73013  0.00701  0.13121  1
 S  S10  1  0.23013  0.50701  0.63121  1
 S  S11  1  0.26967  0.49280  0.11859  1
 S  S12  1  0.51621  0.27236  0.89427  1
 S  S13  1  0.22794  0.98384  0.60592  1
 S  S14  1  0.48384  0.22794  0.35592  1
 S  S15  1  0.77236  0.51621  0.64427  1
 S  S16  1  0.50701  0.73013  0.88121  1
 Zr  Zr1  1  0.24970  0.49987  0.87478  1
 Zr  Zr2  1  0.49987  0.74970  0.12478  1
 Zr  Zr3  1  0.74970  -0.00013  0.37478  1
 Zr  Zr4  1  -0.00013  0.24970  0.62478  1
