CIF file written using JARVIS-Tools package.
data_Li2CrCoO4
_symmetry_space_group_name_H-M  'Imma'
_cell_length_a       5.74312
_cell_length_b       5.76296
_cell_length_c       5.74315
_cell_angle_alpha    120.101
_cell_angle_beta     90.6194
_cell_angle_gamma    59.8999

_symmetry_Int_Tables_number  74
_chemical_formula_structural  Li2CrCoO4
_chemical_formula_sum  Li4Cr2Co2O8
_cell_volume  134.71510655931974
_cell_formula_units_Z  2
loop_
  _symmetry_equiv_pos_site_id
 _symmetry_equiv_pos_as_xyz
 1  'x, y, z'
loop_
 _atom_site_type_symbol
 _atom_site_label
 _atom_site_symmetry_multiplicity
 _atom_site_fract_x
 _atom_site_fract_y
 _atom_site_fract_z
 _atom_site_fract_occupancy
 Co  Co1  1  0.49747  0.00482  0.00335  1
 Co  Co2  1  0.49747  0.50482  0.00334  1
 Cr  Cr1  1  0.99746  0.00483  0.00336  1
 Cr  Cr2  1  0.49745  0.50483  0.50335  1
 Li  Li1  1  0.49752  0.00477  0.50331  1
 Li  Li2  1  0.99751  0.50476  0.00328  1
 Li  Li3  1  0.99746  0.50482  0.50335  1
 Li  Li4  1  0.99747  0.00480  0.50333  1
 O  O1  1  0.73972  0.01940  0.24575  1
 O  O2  1  0.25507  0.51940  0.76109  1
 O  O3  1  0.73985  0.49025  0.24562  1
 O  O4  1  0.25519  0.99026  0.76097  1
 O  O5  1  0.27455  0.48307  0.23709  1
 O  O6  1  0.73122  0.02653  0.78043  1
 O  O7  1  0.26373  0.98307  0.22626  1
 O  O8  1  0.72038  0.52654  0.76959  1
