CIF file written using JARVIS-Tools package.
data_Sr3Y2N4
_symmetry_space_group_name_H-M  'C2/c'
_cell_length_a       7.64576
_cell_length_b       10.5225
_cell_length_c       6.4574
_cell_angle_alpha    90
_cell_angle_beta     91.6441
_cell_angle_gamma    133.482

_symmetry_Int_Tables_number  15
_chemical_formula_structural  Sr3Y2N4
_chemical_formula_sum  Sr6Y4N8
_cell_volume  376.6600187061288
_cell_formula_units_Z  2
loop_
  _symmetry_equiv_pos_site_id
 _symmetry_equiv_pos_as_xyz
 1  'x, y, z'
loop_
 _atom_site_type_symbol
 _atom_site_label
 _atom_site_symmetry_multiplicity
 _atom_site_fract_x
 _atom_site_fract_y
 _atom_site_fract_z
 _atom_site_fract_occupancy
 N  N1  1  0.62068  0.39062  0.43652  1
 N  N2  1  0.62068  0.23006  0.93652  1
 N  N3  1  0.21375  0.34609  0.99875  1
 N  N4  1  0.78625  0.13234  0.50125  1
 N  N5  1  0.78625  0.65391  0.00125  1
 N  N6  1  0.21375  0.86766  0.49875  1
 N  N7  1  0.37932  0.76994  0.06348  1
 N  N8  1  0.37932  0.60938  0.56348  1
 Sr  Sr1  1  0.22216  0.91996  0.07793  1
 Sr  Sr2  1  -0.00000  0.41185  0.25000  1
 Sr  Sr3  1  0.00000  0.58815  0.75000  1
 Sr  Sr4  1  0.22216  0.30221  0.57793  1
 Sr  Sr5  1  0.77784  0.08004  0.92207  1
 Sr  Sr6  1  0.77784  0.69779  0.42207  1
 Y  Y1  1  0.47463  0.63092  0.90847  1
 Y  Y2  1  0.52537  0.36908  0.09153  1
 Y  Y3  1  0.47463  0.84371  0.40847  1
 Y  Y4  1  0.52537  0.15629  0.59153  1
