CIF file written using JARVIS-Tools package.
data_Sr2SbN3
_symmetry_space_group_name_H-M  'Cmce'
_cell_length_a       6.53829
_cell_length_b       11.6743
_cell_length_c       12.4131
_cell_angle_alpha    90
_cell_angle_beta     90.0013
_cell_angle_gamma    153.223

_symmetry_Int_Tables_number  64
_chemical_formula_structural  Sr2SbN3
_chemical_formula_sum  Sr8Sb4N2
_cell_volume  426.86940874551044
_cell_formula_units_Z  4
loop_
  _symmetry_equiv_pos_site_id
 _symmetry_equiv_pos_as_xyz
 1  'x, y, z'
loop_
 _atom_site_type_symbol
 _atom_site_label
 _atom_site_symmetry_multiplicity
 _atom_site_fract_x
 _atom_site_fract_y
 _atom_site_fract_z
 _atom_site_fract_occupancy
 N  N1  1  -0.00000  0.93065  0.25000  1
 N  N2  1  0.50008  0.84685  0.97181  1
 N  N3  1  0.50008  0.65323  0.47181  1
 N  N4  1  0.49992  0.15315  0.02819  1
 N  N5  1  0.50019  0.42460  0.14216  1
 N  N6  1  0.49981  0.92440  0.35784  1
 N  N7  1  0.49981  0.57540  0.85784  1
 N  N8  1  0.50019  0.07560  0.64216  1
 N  N9  1  -0.00000  0.43056  0.25000  1
 N  N10  1  0.00000  0.56944  0.75000  1
 N  N11  1  0.00000  0.06935  0.75000  1
 N  N12  1  0.49992  0.34677  0.52819  1
 Sb  Sb1  1  0.49994  0.74625  0.84049  1
 Sb  Sb2  1  0.50006  0.25375  0.15951  1
 Sb  Sb3  1  0.49994  0.75369  0.34049  1
 Sb  Sb4  1  0.50006  0.24631  0.65951  1
 Sr  Sr1  1  0.50006  0.63324  0.07513  1
 Sr  Sr2  1  0.49994  0.13317  0.42487  1
 Sr  Sr3  1  0.49994  0.36676  0.92487  1
 Sr  Sr4  1  0.50006  0.86683  0.57513  1
 Sr  Sr5  1  0.49999  0.46242  0.35516  1
 Sr  Sr6  1  0.50001  0.96243  0.14484  1
 Sr  Sr7  1  0.50001  0.53758  0.64484  1
 Sr  Sr8  1  0.49999  0.03757  0.85516  1
