CIF file written using JARVIS-Tools package.
data_LiFe2O3
_symmetry_space_group_name_H-M  'P2_1/m'
_cell_length_a       2.88221
_cell_length_b       4.99214
_cell_length_c       7.29032
_cell_angle_alpha    90.6498
_cell_angle_beta     90.0006
_cell_angle_gamma    90.0002

_symmetry_Int_Tables_number  11
_chemical_formula_structural  LiFe2O3
_chemical_formula_sum  Li2Fe4O6
_cell_volume  104.88949437725157
_cell_formula_units_Z  2
loop_
  _symmetry_equiv_pos_site_id
 _symmetry_equiv_pos_as_xyz
 1  'x, y, z'
loop_
 _atom_site_type_symbol
 _atom_site_label
 _atom_site_symmetry_multiplicity
 _atom_site_fract_x
 _atom_site_fract_y
 _atom_site_fract_z
 _atom_site_fract_occupancy
 Fe  Fe1  1  0.00001  0.67843  0.17738  1
 Fe  Fe2  1  0.49999  0.82156  0.82262  1
 Fe  Fe3  1  0.50002  0.15112  0.17613  1
 Fe  Fe4  1  -0.00001  0.34888  0.82387  1
 Li  Li1  1  0.50000  0.49974  0.49093  1
 Li  Li2  1  -0.00002  0.00029  0.50908  1
 O  O1  1  0.50000  0.52696  0.00803  1
 O  O2  1  -0.00000  0.97304  0.99197  1
 O  O3  1  0.49998  0.14996  0.68211  1
 O  O4  1  -0.00001  0.68066  0.67381  1
 O  O5  1  0.50001  0.81934  0.32619  1
 O  O6  1  0.00002  0.35004  0.31790  1
