CIF file written using JARVIS-Tools package.
data_CoAgO3
_symmetry_space_group_name_H-M  'P-1'
_cell_length_a       4.98174
_cell_length_b       5.84768
_cell_length_c       7.68862
_cell_angle_alpha    78.0638
_cell_angle_beta     90.2309
_cell_angle_gamma    90.4248

_symmetry_Int_Tables_number  2
_chemical_formula_structural  CoAgO3
_chemical_formula_sum  Co4Ag4O2
_cell_volume  219.13245134546708
_cell_formula_units_Z  4
loop_
  _symmetry_equiv_pos_site_id
 _symmetry_equiv_pos_as_xyz
 1  'x, y, z'
loop_
 _atom_site_type_symbol
 _atom_site_label
 _atom_site_symmetry_multiplicity
 _atom_site_fract_x
 _atom_site_fract_y
 _atom_site_fract_z
 _atom_site_fract_occupancy
 Ag  Ag1  1  -0.00144  0.72640  0.36417  1
 Ag  Ag2  1  0.49856  0.22640  0.86417  1
 Ag  Ag3  1  0.00144  0.27360  0.63583  1
 Ag  Ag4  1  0.50144  0.77360  0.13583  1
 Co  Co1  1  0.50005  0.82536  0.66265  1
 Co  Co2  1  0.49995  0.17465  0.33736  1
 Co  Co3  1  0.00005  0.32536  0.16265  1
 Co  Co4  1  -0.00005  0.67465  0.83735  1
 O  O1  1  0.81132  0.66773  0.62724  1
 O  O2  1  0.18868  0.33227  0.37276  1
 O  O3  1  0.61357  0.13377  0.57277  1
 O  O4  1  0.11357  0.63378  0.07277  1
 O  O5  1  0.31132  0.16773  0.12724  1
 O  O6  1  0.38643  0.86623  0.42723  1
 O  O7  1  0.79936  0.05440  0.24030  1
 O  O8  1  0.29936  0.55440  0.74030  1
 O  O9  1  0.20064  0.94560  0.75970  1
 O  O10  1  0.88643  0.36622  0.92723  1
 O  O11  1  0.70064  0.44560  0.25970  1
 O  O12  1  0.68868  0.83226  0.87276  1
