CIF file written using JARVIS-Tools package.
data_Sr2MnGaO5
_symmetry_space_group_name_H-M  'Fmmm'
_cell_length_a       5.48556
_cell_length_b       5.48554
_cell_length_c       9.00676
_cell_angle_alpha    107.487
_cell_angle_beta     107.488
_cell_angle_gamma    90.7583

_symmetry_Int_Tables_number  69
_chemical_formula_structural  Sr2MnGaO5
_chemical_formula_sum  Sr4Mn2Ga2O0
_cell_volume  244.94937541119884
_cell_formula_units_Z  2
loop_
  _symmetry_equiv_pos_site_id
 _symmetry_equiv_pos_as_xyz
 1  'x, y, z'
loop_
 _atom_site_type_symbol
 _atom_site_label
 _atom_site_symmetry_multiplicity
 _atom_site_fract_x
 _atom_site_fract_y
 _atom_site_fract_z
 _atom_site_fract_occupancy
 Ga  Ga1  1  0.18309  0.18313  0.50001  1
 Ga  Ga2  1  0.81691  0.81687  0.49999  1
 Mn  Mn1  1  0.00000  -0.00000  -0.00000  1
 Mn  Mn2  1  0.50000  0.50000  -0.00000  1
 O  O1  1  0.62070  0.62066  0.28760  1
 O  O2  1  0.83307  0.83304  0.71238  1
 O  O3  1  0.75654  0.75654  0.01308  1
 O  O4  1  0.25001  0.75001  0.00001  1
 O  O5  1  0.24346  0.24346  0.98692  1
 O  O6  1  0.82851  0.17146  0.50000  1
 O  O7  1  0.16693  0.16696  0.28762  1
 O  O8  1  0.37930  0.37934  0.71240  1
 O  O9  1  0.74999  0.24999  0.99998  1
 O  O10  1  0.17148  0.82854  0.50000  1
 Sr  Sr1  1  0.59683  0.12241  0.21925  1
 Sr  Sr2  1  0.40317  0.87759  0.78075  1
 Sr  Sr3  1  0.12242  0.59684  0.21925  1
 Sr  Sr4  1  0.87758  0.40316  0.78075  1
