CIF file written using JARVIS-Tools package.
data_CoPO4F
_symmetry_space_group_name_H-M  'P-1'
_cell_length_a       5.04036
_cell_length_b       4.93053
_cell_length_c       6.90908
_cell_angle_alpha    108.695
_cell_angle_beta     106.684
_cell_angle_gamma    98.4163

_symmetry_Int_Tables_number  2
_chemical_formula_structural  CoPO4F
_chemical_formula_sum  Co2P2O8F2
_cell_volume  150.32204612696034
_cell_formula_units_Z  2
loop_
  _symmetry_equiv_pos_site_id
 _symmetry_equiv_pos_as_xyz
 1  'x, y, z'
loop_
 _atom_site_type_symbol
 _atom_site_label
 _atom_site_symmetry_multiplicity
 _atom_site_fract_x
 _atom_site_fract_y
 _atom_site_fract_z
 _atom_site_fract_occupancy
 Co  Co1  1  0.00000  0.00000  0.00000  1
 Co  Co2  1  -0.00000  0.00000  0.50000  1
 F  F1  1  0.04926  0.86401  0.73079  1
 F  F2  1  0.95074  0.13599  0.26921  1
 O  O1  1  0.66074  0.08679  0.87241  1
 O  O2  1  0.78554  0.63002  0.94752  1
 O  O3  1  0.78453  0.26056  0.58688  1
 O  O4  1  0.32868  0.31347  0.65840  1
 O  O5  1  0.21446  0.36998  0.05248  1
 O  O6  1  0.21547  0.73944  0.41312  1
 O  O7  1  0.67132  0.68653  0.34160  1
 O  O8  1  0.33926  0.91321  0.12759  1
 P  P1  1  0.35440  0.68277  0.23609  1
 P  P2  1  0.64560  0.31723  0.76391  1
