CIF file written using JARVIS-Tools package.
data_Na3CoBAsO7
_symmetry_space_group_name_H-M  'P2_1/m'
_cell_length_a       9.04496
_cell_length_b       6.44187
_cell_length_c       5.2333
_cell_angle_alpha    89.9964
_cell_angle_beta     87.5451
_cell_angle_gamma    89.9893

_symmetry_Int_Tables_number  11
_chemical_formula_structural  Na3CoBAsO7
_chemical_formula_sum  Na6Co2B2As2O4
_cell_volume  304.6455993811926
_cell_formula_units_Z  2
loop_
  _symmetry_equiv_pos_site_id
 _symmetry_equiv_pos_as_xyz
 1  'x, y, z'
loop_
 _atom_site_type_symbol
 _atom_site_label
 _atom_site_symmetry_multiplicity
 _atom_site_fract_x
 _atom_site_fract_y
 _atom_site_fract_z
 _atom_site_fract_occupancy
 As  As1  1  0.57214  0.75004  0.28456  1
 As  As2  1  0.42786  0.24995  0.71544  1
 B  B1  1  0.93094  0.25006  0.27943  1
 B  B2  1  0.06906  0.74995  0.72057  1
 Co  Co1  1  0.67322  0.24998  0.21590  1
 Co  Co2  1  0.32677  0.75002  0.78411  1
 Na  Na1  1  0.07539  0.25030  0.76828  1
 Na  Na2  1  0.74965  -0.00503  0.75210  1
 Na  Na3  1  0.74945  0.50503  0.75209  1
 Na  Na4  1  0.25056  0.49497  0.24792  1
 Na  Na5  1  0.25036  0.00504  0.24789  1
 Na  Na6  1  0.92461  0.74970  0.23173  1
 O  O1  1  0.30552  0.45092  0.79406  1
 O  O2  1  0.86568  0.24999  0.04112  1
 O  O3  1  0.13432  0.75001  0.95888  1
 O  O4  1  0.18145  0.74997  0.52867  1
 O  O5  1  0.30543  0.04911  0.79388  1
 O  O6  1  0.07660  0.25018  0.31596  1
 O  O7  1  0.81855  0.25004  0.47133  1
 O  O8  1  0.58735  0.24986  0.87688  1
 O  O9  1  0.52875  0.74998  0.61258  1
 O  O10  1  0.69447  0.54908  0.20593  1
 O  O11  1  0.69457  0.95088  0.20613  1
 O  O12  1  0.47124  0.25000  0.38743  1
 O  O13  1  0.41265  0.75014  0.12312  1
 O  O14  1  0.92340  0.74983  0.68403  1
