CIF file written using JARVIS-Tools package.
data_TmCrO4
_symmetry_space_group_name_H-M  'I4_1/amd'
_cell_length_a       5.87289
_cell_length_b       5.8729
_cell_length_c       5.87289
_cell_angle_alpha    106.26
_cell_angle_beta     106.26
_cell_angle_gamma    116.105

_symmetry_Int_Tables_number  141
_chemical_formula_structural  TmCrO4
_chemical_formula_sum  Tm2Cr2O8
_cell_volume  154.3464706234842
_cell_formula_units_Z  2
loop_
  _symmetry_equiv_pos_site_id
 _symmetry_equiv_pos_as_xyz
 1  'x, y, z'
loop_
 _atom_site_type_symbol
 _atom_site_label
 _atom_site_symmetry_multiplicity
 _atom_site_fract_x
 _atom_site_fract_y
 _atom_site_fract_z
 _atom_site_fract_occupancy
 Cr  Cr1  1  0.25000  0.75000  0.50000  1
 Cr  Cr2  1  0.00000  0.00000  0.00000  1
 O  O1  1  0.82333  0.00878  0.18544  1
 O  O2  1  0.88789  0.57333  0.31456  1
 O  O3  1  0.25878  0.57333  0.68544  1
 O  O4  1  0.82333  0.63789  0.81456  1
 O  O5  1  0.36211  0.17667  0.18544  1
 O  O6  1  0.42667  0.74122  0.31456  1
 O  O7  1  0.42667  0.11211  0.68544  1
 O  O8  1  0.99122  0.17667  0.81456  1
 Tm  Tm1  1  0.50000  0.50000  0.00000  1
 Tm  Tm2  1  0.75000  0.25000  0.50000  1
