CIF file written using JARVIS-Tools package.
data_ErMoClO4
_symmetry_space_group_name_H-M  'C2/m'
_cell_length_a       6.22849
_cell_length_b       6.22849
_cell_length_c       6.80516
_cell_angle_alpha    75.806
_cell_angle_beta     75.8059
_cell_angle_gamma    70.433

_symmetry_Int_Tables_number  12
_chemical_formula_structural  ErMoClO4
_chemical_formula_sum  Er2Mo2Cl2O8
_cell_volume  237.28607707162962
_cell_formula_units_Z  2
loop_
  _symmetry_equiv_pos_site_id
 _symmetry_equiv_pos_as_xyz
 1  'x, y, z'
loop_
 _atom_site_type_symbol
 _atom_site_label
 _atom_site_symmetry_multiplicity
 _atom_site_fract_x
 _atom_site_fract_y
 _atom_site_fract_z
 _atom_site_fract_occupancy
 Cl  Cl1  1  0.99098  0.99098  0.76219  1
 Cl  Cl2  1  0.00902  0.00902  0.23781  1
 Er  Er1  1  0.77835  0.77835  0.10887  1
 Er  Er2  1  0.22165  0.22165  0.89113  1
 Mo  Mo1  1  0.36258  0.36258  0.26973  1
 Mo  Mo2  1  0.63742  0.63742  0.73027  1
 O  O1  1  0.49086  0.10780  0.15418  1
 O  O2  1  0.50914  0.89220  0.84582  1
 O  O3  1  0.89220  0.50914  0.84582  1
 O  O4  1  0.45635  0.45635  0.80022  1
 O  O5  1  0.70521  0.70521  0.46217  1
 O  O6  1  0.10780  0.49086  0.15418  1
 O  O7  1  0.29479  0.29479  0.53783  1
 O  O8  1  0.54365  0.54365  0.19978  1
