CIF file written using JARVIS-Tools package.
data_ScCr2AgH4O10
_symmetry_space_group_name_H-M  'P-1'
_cell_length_a       5.61542
_cell_length_b       6.03682
_cell_length_c       7.34175
_cell_angle_alpha    111.013
_cell_angle_beta     90.0509
_cell_angle_gamma    117.757

_symmetry_Int_Tables_number  2
_chemical_formula_structural  ScCr2AgH4O10
_chemical_formula_sum  ScCr2AgH4O0
_cell_volume  201.3045318213124
_cell_formula_units_Z  1
loop_
  _symmetry_equiv_pos_site_id
 _symmetry_equiv_pos_as_xyz
 1  'x, y, z'
loop_
 _atom_site_type_symbol
 _atom_site_label
 _atom_site_symmetry_multiplicity
 _atom_site_fract_x
 _atom_site_fract_y
 _atom_site_fract_z
 _atom_site_fract_occupancy
 Ag  Ag1  1  0.00000  0.00000  0.50000  1
 Cr  Cr1  1  0.63638  0.23733  0.31720  1
 Cr  Cr2  1  0.36362  0.76267  0.68280  1
 H  H1  1  0.24190  0.49456  0.95793  1
 H  H2  1  0.70120  0.43255  0.80021  1
 H  H3  1  0.75810  0.50544  0.04207  1
 H  H4  1  0.29880  0.56745  0.19979  1
 O  O1  1  0.17049  0.91980  0.74461  1
 O  O2  1  0.20988  0.47349  0.71246  1
 O  O3  1  0.31977  0.03253  0.17153  1
 O  O4  1  0.68023  0.96747  0.82847  1
 O  O5  1  0.82951  0.08020  0.25539  1
 O  O6  1  0.39200  0.70122  0.45210  1
 O  O7  1  0.22259  0.42242  0.06219  1
 O  O8  1  0.77741  0.57758  0.93781  1
 O  O9  1  0.79012  0.52651  0.28754  1
 O  O10  1  0.60800  0.29878  0.54790  1
 Sc  Sc1  1  0.00000  0.00000  0.00000  1
