CIF file written using JARVIS-Tools package.
data_V2Cu5H4O12
_symmetry_space_group_name_H-M  'P-1'
_cell_length_a       5.42247
_cell_length_b       6.26297
_cell_length_c       6.87615
_cell_angle_alpha    86.9367
_cell_angle_beta     89.5863
_cell_angle_gamma    88.8387

_symmetry_Int_Tables_number  2
_chemical_formula_structural  V2Cu5H4O12
_chemical_formula_sum  V2Cu5H4O2
_cell_volume  233.13356938433034
_cell_formula_units_Z  1
loop_
  _symmetry_equiv_pos_site_id
 _symmetry_equiv_pos_as_xyz
 1  'x, y, z'
loop_
 _atom_site_type_symbol
 _atom_site_label
 _atom_site_symmetry_multiplicity
 _atom_site_fract_x
 _atom_site_fract_y
 _atom_site_fract_z
 _atom_site_fract_occupancy
 Cu  Cu1  1  0.99666  0.84748  0.66099  1
 Cu  Cu2  1  0.00000  0.50000  0.00000  1
 Cu  Cu3  1  0.00334  0.15252  0.33901  1
 Cu  Cu4  1  0.49939  0.68243  0.82601  1
 Cu  Cu5  1  0.50061  0.31757  0.17399  1
 H  H1  1  0.20511  0.88646  0.00997  1
 H  H2  1  0.80326  0.47197  0.64951  1
 H  H3  1  0.79489  0.11354  0.99003  1
 H  H4  1  0.19674  0.52803  0.35049  1
 O  O1  1  0.14937  0.11874  0.59771  1
 O  O2  1  0.83402  0.58132  0.74693  1
 O  O3  1  0.61080  0.98000  0.80397  1
 O  O4  1  0.85063  0.88126  0.40229  1
 O  O5  1  0.37229  0.70534  0.49261  1
 O  O6  1  0.38430  0.38726  0.85374  1
 O  O7  1  0.16662  0.77795  0.91379  1
 O  O8  1  0.38920  0.02000  0.19603  1
 O  O9  1  0.16598  0.41868  0.25307  1
 O  O10  1  0.83338  0.22205  0.08621  1
 O  O11  1  0.62771  0.29466  0.50739  1
 O  O12  1  0.61570  0.61274  0.14626  1
 V  V1  1  0.55654  0.80853  0.31354  1
 V  V2  1  0.44346  0.19147  0.68646  1
