CIF file written using JARVIS-Tools package.
data_LaMo6Se8
_symmetry_space_group_name_H-M  'R-3'
_cell_length_a       6.84237
_cell_length_b       6.84237
_cell_length_c       6.84237
_cell_angle_alpha    88.5828
_cell_angle_beta     88.5829
_cell_angle_gamma    88.5828

_symmetry_Int_Tables_number  148
_chemical_formula_structural  LaMo6Se8
_chemical_formula_sum  LaMo6Se8
_cell_volume  320.0577663857611
_cell_formula_units_Z  1
loop_
  _symmetry_equiv_pos_site_id
 _symmetry_equiv_pos_as_xyz
 1  'x, y, z'
loop_
 _atom_site_type_symbol
 _atom_site_label
 _atom_site_symmetry_multiplicity
 _atom_site_fract_x
 _atom_site_fract_y
 _atom_site_fract_z
 _atom_site_fract_occupancy
 La  La1  1  0.00000  0.00000  0.00000  1
 Mo  Mo1  1  0.76103  0.43843  0.57662  1
 Mo  Mo2  1  0.43843  0.57662  0.76103  1
 Mo  Mo3  1  0.57662  0.76103  0.43843  1
 Mo  Mo4  1  0.42338  0.23897  0.56157  1
 Mo  Mo5  1  0.56157  0.42338  0.23897  1
 Mo  Mo6  1  0.23897  0.56157  0.42338  1
 Se  Se1  1  0.62216  0.24626  0.88069  1
 Se  Se2  1  0.88069  0.62216  0.24626  1
 Se  Se3  1  0.75761  0.75761  0.75761  1
 Se  Se4  1  0.24626  0.88069  0.62216  1
 Se  Se5  1  0.75374  0.11931  0.37784  1
 Se  Se6  1  0.24239  0.24239  0.24239  1
 Se  Se7  1  0.11931  0.37784  0.75374  1
 Se  Se8  1  0.37784  0.75374  0.11931  1
