CIF file written using JARVIS-Tools package.
data_Fe4As2O11
_symmetry_space_group_name_H-M  'P-1'
_cell_length_a       5.03178
_cell_length_b       6.44186
_cell_length_c       6.68732
_cell_angle_alpha    108.32
_cell_angle_beta     106.803
_cell_angle_gamma    97.7407

_symmetry_Int_Tables_number  2
_chemical_formula_structural  Fe4As2O11
_chemical_formula_sum  Fe4As2O
_cell_volume  190.82695218810127
_cell_formula_units_Z  1
loop_
  _symmetry_equiv_pos_site_id
 _symmetry_equiv_pos_as_xyz
 1  'x, y, z'
loop_
 _atom_site_type_symbol
 _atom_site_label
 _atom_site_symmetry_multiplicity
 _atom_site_fract_x
 _atom_site_fract_y
 _atom_site_fract_z
 _atom_site_fract_occupancy
 As  As1  1  0.34028  0.81290  0.60753  1
 As  As2  1  0.65972  0.18710  0.39247  1
 Fe  Fe1  1  0.10558  0.75083  0.02843  1
 Fe  Fe2  1  0.89442  0.24917  0.97157  1
 Fe  Fe3  1  0.66164  0.63315  0.24989  1
 Fe  Fe4  1  0.33836  0.36685  0.75011  1
 O  O1  1  0.74270  0.53208  0.94893  1
 O  O2  1  0.25730  0.46792  0.05107  1
 O  O3  1  0.52675  0.90814  0.20010  1
 O  O4  1  0.92416  0.19804  0.63197  1
 O  O5  1  0.20475  0.65155  0.73663  1
 O  O6  1  0.38248  0.27868  0.46081  1
 O  O7  1  0.07584  0.80196  0.36803  1
 O  O8  1  0.79525  0.34845  0.26337  1
 O  O9  1  0.47325  0.09186  0.79990  1
 O  O10  1  0.00000  0.00000  0.00000  1
 O  O11  1  0.61752  0.72132  0.53919  1
