CIF file written using JARVIS-Tools package.
data_V2CdP2O10
_symmetry_space_group_name_H-M  'Fdd2'
_cell_length_a       9.8654
_cell_length_b       8.78406
_cell_length_c       6.79223
_cell_angle_alpha    77.4307
_cell_angle_beta     60.3486
_cell_angle_gamma    42.2207

_symmetry_Int_Tables_number  43
_chemical_formula_structural  V2CdP2O10
_chemical_formula_sum  V4Cd2P4O20
_cell_volume  332.4025204840822
_cell_formula_units_Z  2
loop_
  _symmetry_equiv_pos_site_id
 _symmetry_equiv_pos_as_xyz
 1  'x, y, z'
loop_
 _atom_site_type_symbol
 _atom_site_label
 _atom_site_symmetry_multiplicity
 _atom_site_fract_x
 _atom_site_fract_y
 _atom_site_fract_z
 _atom_site_fract_occupancy
 Cd  Cd1  1  0.00121  0.99879  0.99879  1
 Cd  Cd2  1  0.25121  0.24879  0.24879  1
 O  O1  1  0.56135  0.23648  0.91732  1
 O  O2  1  0.86705  0.59849  0.34721  1
 O  O3  1  0.39139  0.63769  0.88846  1
 O  O4  1  0.36154  0.16754  0.85861  1
 O  O5  1  0.97106  0.33553  0.00169  1
 O  O6  1  0.61231  0.85861  0.16754  1
 O  O7  1  0.91447  0.27894  0.55829  1
 O  O8  1  0.67419  0.66133  0.82175  1
 O  O9  1  0.65151  0.38295  0.06275  1
 O  O10  1  0.33268  0.96515  0.68865  1
 O  O11  1  0.69171  0.00169  0.33553  1
 O  O12  1  0.58867  0.57581  0.40726  1
 O  O13  1  0.18725  0.34721  0.59849  1
 O  O14  1  0.28485  0.91732  0.23648  1
 O  O15  1  0.84274  0.82175  0.66133  1
 O  O16  1  0.42825  0.40726  0.57581  1
 O  O17  1  0.08246  0.88846  0.63769  1
 O  O18  1  0.01352  0.68865  0.96515  1
 O  O19  1  0.24831  0.55829  0.27894  1
 O  O20  1  0.90279  0.06275  0.38295  1
 P  P1  1  0.04755  0.03621  0.45214  1
 P  P2  1  0.79786  0.78590  0.20245  1
 P  P3  1  0.46410  0.45214  0.03621  1
 P  P4  1  0.21379  0.20245  0.78590  1
 V  V1  1  0.62331  0.61383  0.60127  1
 V  V2  1  0.64873  0.08841  0.62669  1
 V  V3  1  0.16159  0.60127  0.61383  1
 V  V4  1  0.63617  0.62669  0.08841  1
