CIF file written using JARVIS-Tools package.
data_Li4Mo3O8
_symmetry_space_group_name_H-M  'R-3m'
_cell_length_a       11.1624
_cell_length_b       11.1624
_cell_length_c       11.1624
_cell_angle_alpha    29.8728
_cell_angle_beta     29.8728
_cell_angle_gamma    29.8728

_symmetry_Int_Tables_number  166
_chemical_formula_structural  Li4Mo3O8
_chemical_formula_sum  Li8Mo6O6
_cell_volume  305.57219976401166
_cell_formula_units_Z  2
loop_
  _symmetry_equiv_pos_site_id
 _symmetry_equiv_pos_as_xyz
 1  'x, y, z'
loop_
 _atom_site_type_symbol
 _atom_site_label
 _atom_site_symmetry_multiplicity
 _atom_site_fract_x
 _atom_site_fract_y
 _atom_site_fract_z
 _atom_site_fract_occupancy
 Li  Li1  1  0.24552  0.24552  0.24552  1
 Li  Li2  1  0.17415  0.17415  0.17415  1
 Li  Li3  1  0.82585  0.82585  0.82585  1
 Li  Li4  1  0.68463  0.68463  0.68463  1
 Li  Li5  1  0.75448  0.75448  0.75448  1
 Li  Li6  1  0.00000  0.00000  0.00000  1
 Li  Li7  1  0.50000  0.50000  0.50000  1
 Li  Li8  1  0.31537  0.31537  0.31537  1
 Mo  Mo1  1  0.71459  0.26797  0.26797  1
 Mo  Mo2  1  0.73203  0.73203  0.28541  1
 Mo  Mo3  1  0.26797  0.71459  0.26797  1
 Mo  Mo4  1  0.28541  0.73203  0.73203  1
 Mo  Mo5  1  0.73203  0.28541  0.73203  1
 Mo  Mo6  1  0.26797  0.26797  0.71459  1
 O  O1  1  0.37211  0.37211  0.37211  1
 O  O2  1  0.62036  0.62036  0.12841  1
 O  O3  1  0.88699  0.37784  0.88699  1
 O  O4  1  0.11301  0.11301  0.62216  1
 O  O5  1  0.88394  0.88394  0.88394  1
 O  O6  1  0.37964  0.37964  0.87159  1
 O  O7  1  0.62216  0.11301  0.11301  1
 O  O8  1  0.11301  0.62216  0.11301  1
 O  O9  1  0.62789  0.62789  0.62789  1
 O  O10  1  0.11606  0.11606  0.11606  1
 O  O11  1  0.88699  0.88699  0.37784  1
 O  O12  1  0.87159  0.37964  0.37964  1
 O  O13  1  0.37784  0.88699  0.88699  1
 O  O14  1  0.12841  0.62036  0.62036  1
 O  O15  1  0.37964  0.87159  0.37964  1
 O  O16  1  0.62036  0.12841  0.62036  1
