CIF file written using JARVIS-Tools package.
data_Li3Mn5O10
_symmetry_space_group_name_H-M  'P-1'
_cell_length_a       4.9359
_cell_length_b       5.12148
_cell_length_c       7.64917
_cell_angle_alpha    110.986
_cell_angle_beta     101.393
_cell_angle_gamma    99.7071

_symmetry_Int_Tables_number  2
_chemical_formula_structural  Li3Mn5O10
_chemical_formula_sum  Li3Mn5O0
_cell_volume  170.82191339290517
_cell_formula_units_Z  1
loop_
  _symmetry_equiv_pos_site_id
 _symmetry_equiv_pos_as_xyz
 1  'x, y, z'
loop_
 _atom_site_type_symbol
 _atom_site_label
 _atom_site_symmetry_multiplicity
 _atom_site_fract_x
 _atom_site_fract_y
 _atom_site_fract_z
 _atom_site_fract_occupancy
 Li  Li1  1  0.22376  0.92733  0.42430  1
 Li  Li2  1  0.50000  0.50000  0.50000  1
 Li  Li3  1  0.77624  0.07267  0.57570  1
 Mn  Mn1  1  0.10743  0.69582  0.69238  1
 Mn  Mn2  1  -0.00000  0.50000  -0.00000  1
 Mn  Mn3  1  0.69244  0.88380  0.89529  1
 Mn  Mn4  1  0.30756  0.11621  0.10471  1
 Mn  Mn5  1  0.89257  0.30418  0.30762  1
 O  O1  1  0.88098  0.68257  0.46091  1
 O  O2  1  0.11903  0.31743  0.53909  1
 O  O3  1  0.34149  0.73515  0.94486  1
 O  O4  1  0.03643  0.06926  0.85534  1
 O  O5  1  0.65851  0.26485  0.05514  1
 O  O6  1  0.54510  0.12630  0.33486  1
 O  O7  1  0.77936  0.53019  0.76241  1
 O  O8  1  0.22064  0.46980  0.23759  1
 O  O9  1  0.45491  0.87370  0.66514  1
 O  O10  1  0.96357  0.93074  0.14467  1
