CIF file written using JARVIS-Tools package.
data_Li4VCr3O8
_symmetry_space_group_name_H-M  'P-1'
_cell_length_a       5.01809
_cell_length_b       5.10198
_cell_length_c       5.79805
_cell_angle_alpha    73.4847
_cell_angle_beta     90.0093
_cell_angle_gamma    80.6529

_symmetry_Int_Tables_number  2
_chemical_formula_structural  Li4VCr3O8
_chemical_formula_sum  Li4VCr3O8
_cell_volume  140.26023787746934
_cell_formula_units_Z  1
loop_
  _symmetry_equiv_pos_site_id
 _symmetry_equiv_pos_as_xyz
 1  'x, y, z'
loop_
 _atom_site_type_symbol
 _atom_site_label
 _atom_site_symmetry_multiplicity
 _atom_site_fract_x
 _atom_site_fract_y
 _atom_site_fract_z
 _atom_site_fract_occupancy
 Cr  Cr1  1  0.25030  0.49977  0.37821  1
 Cr  Cr2  1  0.24970  0.50023  0.87179  1
 Cr  Cr3  1  0.75000  0.50000  0.12500  1
 Li  Li1  1  0.00056  0.99626  0.00187  1
 Li  Li2  1  0.49944  0.00374  0.24813  1
 Li  Li3  1  0.00284  0.00097  0.49849  1
 Li  Li4  1  0.49716  0.99903  0.75150  1
 O  O1  1  0.11987  0.27674  0.18057  1
 O  O2  1  0.38013  0.72326  0.06943  1
 O  O3  1  0.62180  0.26782  0.43158  1
 O  O4  1  0.87820  0.73218  0.81842  1
 O  O5  1  0.87905  0.73188  0.31550  1
 O  O6  1  0.62095  0.26813  0.93450  1
 O  O7  1  0.12675  0.26494  0.68411  1
 O  O8  1  0.37325  0.73506  0.56589  1
 V  V1  1  0.75000  0.50000  0.62500  1
