CIF file written using JARVIS-Tools package.
data_Li2TiCo2O5
_symmetry_space_group_name_H-M  'P1'
_cell_length_a       5.08814
_cell_length_b       5.09688
_cell_length_c       7.70138
_cell_angle_alpha    83.6131
_cell_angle_beta     71.4943
_cell_angle_gamma    69.0886

_symmetry_Int_Tables_number  1
_chemical_formula_structural  Li2TiCo2O5
_chemical_formula_sum  Li4Ti2Co4O0
_cell_volume  176.9220713679154
_cell_formula_units_Z  2
loop_
  _symmetry_equiv_pos_site_id
 _symmetry_equiv_pos_as_xyz
 1  'x, y, z'
loop_
 _atom_site_type_symbol
 _atom_site_label
 _atom_site_symmetry_multiplicity
 _atom_site_fract_x
 _atom_site_fract_y
 _atom_site_fract_z
 _atom_site_fract_occupancy
 Co  Co1  1  0.38329  0.01597  0.21658  1
 Co  Co2  1  0.29704  0.49552  0.38964  1
 Co  Co3  1  0.60809  0.00050  0.79174  1
 Co  Co4  1  0.92361  0.48685  0.20303  1
 Li  Li1  1  0.10418  0.49618  0.79393  1
 Li  Li2  1  0.79571  -0.00238  0.40489  1
 Li  Li3  1  0.50668  0.51262  0.00140  1
 Li  Li4  1  0.19944  -0.00054  0.59882  1
 O  O1  1  0.75793  0.76208  0.00575  1
 O  O2  1  0.93367  0.73294  0.59821  1
 O  O3  1  0.14987  0.76274  0.18572  1
 O  O4  1  0.03647  0.25400  0.41713  1
 O  O5  1  0.34622  0.74873  0.79849  1
 O  O6  1  0.54761  0.73497  0.40793  1
 O  O7  1  0.66889  0.24444  0.18569  1
 O  O8  1  0.25098  0.22842  -0.00470  1
 O  O9  1  0.46454  0.26417  0.59585  1
 O  O10  1  0.85143  0.25360  0.80086  1
 Ti  Ti1  1  -0.00915  0.00317  0.99798  1
 Ti  Ti2  1  0.68352  0.50601  0.61107  1
