CIF file written using JARVIS-Tools package.
data_Fe3OF5
_symmetry_space_group_name_H-M  'P1'
_cell_length_a       4.77782
_cell_length_b       5.62161
_cell_length_c       7.78397
_cell_angle_alpha    85.1887
_cell_angle_beta     89.211
_cell_angle_gamma    88.3236

_symmetry_Int_Tables_number  1
_chemical_formula_structural  Fe3OF5
_chemical_formula_sum  Fe6O2F0
_cell_volume  208.23111407189975
_cell_formula_units_Z  2
loop_
  _symmetry_equiv_pos_site_id
 _symmetry_equiv_pos_as_xyz
 1  'x, y, z'
loop_
 _atom_site_type_symbol
 _atom_site_label
 _atom_site_symmetry_multiplicity
 _atom_site_fract_x
 _atom_site_fract_y
 _atom_site_fract_z
 _atom_site_fract_occupancy
 F  F1  1  0.20609  0.02814  0.75433  1
 F  F2  1  0.20003  0.35327  0.43383  1
 F  F3  1  0.68654  0.79204  0.91195  1
 F  F4  1  0.68580  0.47452  0.22334  1
 F  F5  1  0.81433  0.97611  0.23108  1
 F  F6  1  0.30838  0.85561  0.42117  1
 F  F7  1  0.30796  0.52638  0.78127  1
 F  F8  1  0.30899  0.20830  0.09307  1
 F  F9  1  0.19750  0.69836  0.09727  1
 F  F10  1  0.70611  0.13785  0.56914  1
 Fe  Fe1  1  0.99107  0.02260  0.98428  1
 Fe  Fe2  1  0.97010  0.35024  0.69238  1
 Fe  Fe3  1  0.99035  0.65814  0.33990  1
 Fe  Fe4  1  0.52273  0.81846  0.65614  1
 Fe  Fe5  1  0.50756  0.49461  0.99928  1
 Fe  Fe6  1  0.50414  0.16155  0.33726  1
 O  O1  1  0.78033  0.31009  0.91167  1
 O  O2  1  0.81200  0.63373  0.56265  1
