CIF file written using JARVIS-Tools package.
data_Li4VTe3O12
_symmetry_space_group_name_H-M  'P2'
_cell_length_a       8.8045
_cell_length_b       4.9539
_cell_length_c       5.17312
_cell_angle_alpha    86.2173
_cell_angle_beta     90
_cell_angle_gamma    90

_symmetry_Int_Tables_number  3
_chemical_formula_structural  Li4VTe3O12
_chemical_formula_sum  Li4VTe3O2
_cell_volume  225.1423444981383
_cell_formula_units_Z  1
loop_
  _symmetry_equiv_pos_site_id
 _symmetry_equiv_pos_as_xyz
 1  'x, y, z'
loop_
 _atom_site_type_symbol
 _atom_site_label
 _atom_site_symmetry_multiplicity
 _atom_site_fract_x
 _atom_site_fract_y
 _atom_site_fract_z
 _atom_site_fract_occupancy
 Li  Li1  1  0.30588  0.00000  0.00000  1
 Li  Li2  1  0.13317  0.50000  0.00000  1
 Li  Li3  1  0.70222  -0.00000  0.50000  1
 Li  Li4  1  0.82423  0.50000  0.50000  1
 O  O1  1  0.75181  0.25964  0.85092  1
 O  O2  1  0.44172  0.72181  0.14606  1
 O  O3  1  0.05544  0.21100  0.80858  1
 O  O4  1  0.58109  0.70799  0.66551  1
 O  O5  1  0.44172  0.27819  0.85394  1
 O  O6  1  0.22505  0.78005  0.69168  1
 O  O7  1  0.22505  0.21995  0.30832  1
 O  O8  1  0.58109  0.29201  0.33449  1
 O  O9  1  0.90558  0.80106  0.68765  1
 O  O10  1  0.05544  0.78900  0.19142  1
 O  O11  1  0.90558  0.19894  0.31235  1
 O  O12  1  0.75181  0.74036  0.14908  1
 Te  Te1  1  0.39787  0.50000  0.50000  1
 Te  Te2  1  0.07601  -0.00000  0.50000  1
 Te  Te3  1  0.60250  0.50000  0.00000  1
 V  V1  1  0.89566  0.00000  0.00000  1
