CIF file written using JARVIS-Tools package.
data_LiMnF4
_symmetry_space_group_name_H-M  'Cmmm'
_cell_length_a       5.52033
_cell_length_b       5.52034
_cell_length_c       5.52033
_cell_angle_alpha    110.707
_cell_angle_beta     110.488
_cell_angle_gamma    107.241

_symmetry_Int_Tables_number  65
_chemical_formula_structural  LiMnF4
_chemical_formula_sum  Li2Mn2F8
_cell_volume  129.35426780840766
_cell_formula_units_Z  2
loop_
  _symmetry_equiv_pos_site_id
 _symmetry_equiv_pos_as_xyz
 1  'x, y, z'
loop_
 _atom_site_type_symbol
 _atom_site_label
 _atom_site_symmetry_multiplicity
 _atom_site_fract_x
 _atom_site_fract_y
 _atom_site_fract_z
 _atom_site_fract_occupancy
 F  F1  1  0.69568  0.94572  0.74996  1
 F  F2  1  0.30424  0.55428  0.74996  1
 F  F3  1  0.20953  0.00003  0.70956  1
 F  F4  1  0.79047  -0.00003  0.29044  1
 F  F5  1  0.20953  0.49997  0.20951  1
 F  F6  1  0.79047  0.50003  0.79049  1
 F  F7  1  0.30432  0.05428  0.25004  1
 F  F8  1  0.69576  0.44572  0.25004  1
 Li  Li1  1  0.00006  0.75000  0.25006  1
 Li  Li2  1  -0.00006  0.25000  0.74994  1
 Mn  Mn1  1  0.50000  0.50000  0.50000  1
 Mn  Mn2  1  0.50000  -0.00000  -0.00000  1
