CIF file written using JARVIS-Tools package.
data_Na3Li3Mn2P2C2O14
_symmetry_space_group_name_H-M  'P1'
_cell_length_a       8.82851
_cell_length_b       6.65187
_cell_length_c       5.12469
_cell_angle_alpha    92.0461
_cell_angle_beta     89.185
_cell_angle_gamma    81.0127

_symmetry_Int_Tables_number  1
_chemical_formula_structural  Na3Li3Mn2P2C2O14
_chemical_formula_sum  Na3Li3Mn2P2C2O4
_cell_volume  297.0093283266722
_cell_formula_units_Z  1
loop_
  _symmetry_equiv_pos_site_id
 _symmetry_equiv_pos_as_xyz
 1  'x, y, z'
loop_
 _atom_site_type_symbol
 _atom_site_label
 _atom_site_symmetry_multiplicity
 _atom_site_fract_x
 _atom_site_fract_y
 _atom_site_fract_z
 _atom_site_fract_occupancy
 C  C1  1  0.02524  0.76630  0.78180  1
 C  C2  1  0.96454  0.22633  0.21694  1
 Li  Li1  1  0.30712  0.08897  0.19709  1
 Li  Li2  1  0.70316  0.91868  0.79637  1
 Li  Li3  1  0.89934  0.85163  0.31547  1
 Mn  Mn1  1  0.36173  0.76754  0.78767  1
 Mn  Mn2  1  0.65063  0.22727  0.21269  1
 Na  Na1  1  0.09045  0.16196  0.69166  1
 Na  Na2  1  0.23071  0.54556  0.25541  1
 Na  Na3  1  0.75927  0.46801  0.74035  1
 O  O1  1  0.34976  0.46272  0.82297  1
 O  O2  1  0.33750  0.09168  0.81157  1
 O  O3  1  0.90640  0.24114  -0.01037  1
 O  O4  1  0.04423  0.76276  0.02957  1
 O  O5  1  0.10479  0.25025  0.26292  1
 O  O6  1  0.13866  0.79398  0.62364  1
 O  O7  1  0.40975  0.79904  0.20052  1
 O  O8  1  0.87671  0.18015  0.41006  1
 O  O9  1  0.57527  0.75233  0.59742  1
 O  O10  1  0.65409  0.53344  0.18843  1
 O  O11  1  0.67936  0.90066  0.19046  1
 O  O12  1  0.42927  0.25368  0.40421  1
 O  O13  1  0.59940  0.20627  0.79614  1
 O  O14  1  0.89426  0.74963  0.67534  1
 P  P1  1  0.42975  0.25512  0.70942  1
 P  P2  1  0.57862  0.74490  0.29226  1
