CIF file written using JARVIS-Tools package.
data_Co6O7F5
_symmetry_space_group_name_H-M  'C2'
_cell_length_a       4.40641
_cell_length_b       4.40642
_cell_length_c       8.8242
_cell_angle_alpha    89.9559
_cell_angle_beta     89.9559
_cell_angle_gamma    86.7767

_symmetry_Int_Tables_number  5
_chemical_formula_structural  Co6O7F5
_chemical_formula_sum  Co6O7F5
_cell_volume  171.06397250678094
_cell_formula_units_Z  1
loop_
  _symmetry_equiv_pos_site_id
 _symmetry_equiv_pos_as_xyz
 1  'x, y, z'
loop_
 _atom_site_type_symbol
 _atom_site_label
 _atom_site_symmetry_multiplicity
 _atom_site_fract_x
 _atom_site_fract_y
 _atom_site_fract_z
 _atom_site_fract_occupancy
 Co  Co1  1  0.99077  0.99704  0.67498  1
 Co  Co2  1  0.02317  0.97683  -0.00000  1
 Co  Co3  1  0.00296  0.00923  0.32502  1
 Co  Co4  1  0.52173  0.53431  0.82668  1
 Co  Co5  1  0.49805  0.50195  0.50000  1
 Co  Co6  1  0.46569  0.47827  0.17332  1
 F  F1  1  0.20046  0.20560  0.50502  1
 F  F2  1  0.22258  0.22361  0.83471  1
 F  F3  1  0.79440  0.79954  0.49498  1
 F  F4  1  0.77639  0.77742  0.16529  1
 F  F5  1  0.70383  0.29617  -0.00000  1
 O  O1  1  0.31340  0.68660  -0.00000  1
 O  O2  1  0.18586  0.18485  0.16417  1
 O  O3  1  0.28514  0.68727  0.33363  1
 O  O4  1  0.70677  0.31910  0.66527  1
 O  O5  1  0.81515  0.81414  0.83583  1
 O  O6  1  0.31273  0.71486  0.66637  1
 O  O7  1  0.68090  0.29323  0.33473  1
