CIF file written using JARVIS-Tools package.
data_LiCoSiO4
_symmetry_space_group_name_H-M  'I-4'
_cell_length_a       6.2577
_cell_length_b       8.1899
_cell_length_c       8.18982
_cell_angle_alpha    80.3483
_cell_angle_beta     112.46
_cell_angle_gamma    67.5398

_symmetry_Int_Tables_number  82
_chemical_formula_structural  LiCoSiO4
_chemical_formula_sum  Li4Co4Si4O6
_cell_volume  333.4244972387877
_cell_formula_units_Z  4
loop_
  _symmetry_equiv_pos_site_id
 _symmetry_equiv_pos_as_xyz
 1  'x, y, z'
loop_
 _atom_site_type_symbol
 _atom_site_label
 _atom_site_symmetry_multiplicity
 _atom_site_fract_x
 _atom_site_fract_y
 _atom_site_fract_z
 _atom_site_fract_occupancy
 Co  Co1  1  0.50000  0.87500  0.37500  1
 Co  Co2  1  -0.00001  0.12500  0.62500  1
 Co  Co3  1  0.50000  0.37500  0.87500  1
 Co  Co4  1  -0.00001  0.62500  0.12500  1
 Li  Li1  1  0.49999  0.50001  0.49999  1
 Li  Li2  1  0.00000  0.75000  0.75000  1
 Li  Li3  1  0.50000  0.00001  -0.00001  1
 Li  Li4  1  0.00001  0.25000  0.25000  1
 O  O1  1  0.60946  0.84579  0.62950  1
 O  O2  1  0.63285  0.25065  0.46695  1
 O  O3  1  0.13286  0.00065  0.21696  1
 O  O4  1  0.10946  0.59579  0.37950  1
 O  O5  1  0.10946  0.09579  0.87950  1
 O  O6  1  0.08344  0.78305  -0.00065  1
 O  O7  1  0.63285  0.75065  0.96695  1
 O  O8  1  0.60946  0.34579  0.12950  1
 O  O9  1  0.67425  0.62050  0.40421  1
 O  O10  1  0.08344  0.28305  0.49935  1
 O  O11  1  0.67425  0.12050  0.90421  1
 O  O12  1  0.17425  0.37050  0.15421  1
 O  O13  1  0.13286  0.50065  0.71695  1
 O  O14  1  0.58344  0.53306  0.74935  1
 O  O15  1  0.17425  0.87051  0.65421  1
 O  O16  1  0.58344  0.03306  0.24935  1
 Si  Si1  1  0.00001  0.49999  0.50001  1
 Si  Si2  1  0.50000  0.75000  0.75000  1
 Si  Si3  1  0.00001  -0.00001  0.00001  1
 Si  Si4  1  0.49999  0.25001  0.25000  1
