CIF file written using JARVIS-Tools package.
data_VOF2
_symmetry_space_group_name_H-M  'P1'
_cell_length_a       5.03532
_cell_length_b       5.0285
_cell_length_c       13.1628
_cell_angle_alpha    90.2693
_cell_angle_beta     90.2514
_cell_angle_gamma    120.04

_symmetry_Int_Tables_number  1
_chemical_formula_structural  VOF2
_chemical_formula_sum  V6O6F2
_cell_volume  288.50469561681155
_cell_formula_units_Z  6
loop_
  _symmetry_equiv_pos_site_id
 _symmetry_equiv_pos_as_xyz
 1  'x, y, z'
loop_
 _atom_site_type_symbol
 _atom_site_label
 _atom_site_symmetry_multiplicity
 _atom_site_fract_x
 _atom_site_fract_y
 _atom_site_fract_z
 _atom_site_fract_occupancy
 F  F1  1  0.66964  0.94775  0.41367  1
 F  F2  1  0.27726  0.94283  0.91592  1
 F  F3  1  0.60773  0.61120  0.24979  1
 F  F4  1  0.39978  0.37831  0.74921  1
 F  F5  1  0.71506  0.04944  0.08750  1
 F  F6  1  0.62092  -0.00531  0.74579  1
 F  F7  1  0.28682  0.34973  0.41395  1
 F  F8  1  0.05163  0.33027  0.91672  1
 F  F9  1  0.33949  0.06507  0.58544  1
 F  F10  1  -0.00302  0.39176  0.25051  1
 F  F11  1  0.93345  0.64944  0.08542  1
 F  F12  1  0.72062  0.66593  0.58411  1
 O  O1  1  0.00970  0.59539  0.74903  1
 O  O2  1  0.32190  0.25548  0.08433  1
 O  O3  1  0.66353  0.73572  0.91727  1
 O  O4  1  0.07351  0.74809  0.41711  1
 O  O5  1  0.93747  0.26979  0.58204  1
 O  O6  1  0.39138  0.00128  0.25032  1
 V  V1  1  0.35422  0.66163  0.83537  1
 V  V2  1  0.73242  0.35983  0.66701  1
 V  V3  1  0.30191  0.69447  0.33480  1
 V  V4  1  0.60257  0.30550  0.16551  1
 V  V5  1  0.98040  0.97900  0.99832  1
 V  V6  1  0.01160  0.01739  0.50087  1
