CIF file written using JARVIS-Tools package.
data_LiVO2
_symmetry_space_group_name_H-M  'Imma'
_cell_length_a       5.77232
_cell_length_b       5.84991
_cell_length_c       5.84989
_cell_angle_alpha    93.8822
_cell_angle_beta     60.4299
_cell_angle_gamma    119.57

_symmetry_Int_Tables_number  74
_chemical_formula_structural  LiVO2
_chemical_formula_sum  Li4V4O8
_cell_volume  145.33901897062265
_cell_formula_units_Z  4
loop_
  _symmetry_equiv_pos_site_id
 _symmetry_equiv_pos_as_xyz
 1  'x, y, z'
loop_
 _atom_site_type_symbol
 _atom_site_label
 _atom_site_symmetry_multiplicity
 _atom_site_fract_x
 _atom_site_fract_y
 _atom_site_fract_z
 _atom_site_fract_occupancy
 Li  Li1  1  0.24993  0.05099  0.05099  1
 Li  Li2  1  0.75008  0.94903  0.94902  1
 Li  Li3  1  0.50004  0.50001  0.99999  1
 Li  Li4  1  0.00003  -0.00000  0.50001  1
 O  O1  1  0.51181  0.24393  0.24400  1
 O  O2  1  0.98820  0.24393  0.24388  1
 O  O3  1  0.01181  0.75601  0.75608  1
 O  O4  1  0.48821  0.75610  0.75605  1
 O  O5  1  0.53227  0.28246  0.71779  1
 O  O6  1  0.96768  0.71781  0.28247  1
 O  O7  1  0.46767  0.71753  0.28221  1
 O  O8  1  0.03228  0.28222  0.71753  1
 V  V1  1  0.50002  0.99999  0.50000  1
 V  V2  1  0.49998  0.50003  0.50003  1
 V  V3  1  0.00002  0.50000  0.00001  1
 V  V4  1  -0.00003  0.49997  0.49996  1
