CIF file written using JARVIS-Tools package.
data_TiV4CuO12
_symmetry_space_group_name_H-M  'C2'
_cell_length_a       6.69381
_cell_length_b       6.69381
_cell_length_c       5.80791
_cell_angle_alpha    75.1919
_cell_angle_beta     75.1919
_cell_angle_gamma    83.2706

_symmetry_Int_Tables_number  5
_chemical_formula_structural  TiV4CuO12
_chemical_formula_sum  TiV4CuO2
_cell_volume  242.86199907004666
_cell_formula_units_Z  1
loop_
  _symmetry_equiv_pos_site_id
 _symmetry_equiv_pos_as_xyz
 1  'x, y, z'
loop_
 _atom_site_type_symbol
 _atom_site_label
 _atom_site_symmetry_multiplicity
 _atom_site_fract_x
 _atom_site_fract_y
 _atom_site_fract_z
 _atom_site_fract_occupancy
 Cu  Cu1  1  0.90446  0.09554  0.50000  1
 O  O1  1  0.36279  0.90689  0.02894  1
 O  O2  1  0.97033  0.81669  0.36346  1
 O  O3  1  0.92913  0.38545  0.51179  1
 O  O4  1  0.09311  0.63721  0.97106  1
 O  O5  1  0.62214  0.64035  0.31166  1
 O  O6  1  0.79821  0.96415  0.92387  1
 O  O7  1  0.66553  0.62800  0.80821  1
 O  O8  1  0.35965  0.37786  0.68834  1
 O  O9  1  0.03585  0.20179  0.07613  1
 O  O10  1  0.37200  0.33447  0.19179  1
 O  O11  1  0.18331  0.02967  0.63654  1
 O  O12  1  0.61455  0.07087  0.48821  1
 Ti  Ti1  1  0.08280  0.91720  0.00000  1
 V  V1  1  0.21094  0.39129  0.98247  1
 V  V2  1  0.38456  0.19807  0.49785  1
 V  V3  1  0.60871  0.78906  0.01753  1
 V  V4  1  0.80193  0.61544  0.50215  1
