CIF file written using JARVIS-Tools package.
data_CaNb2CuBrO7
_symmetry_space_group_name_H-M  'P4/mmm'
_cell_length_a       3.93352
_cell_length_b       3.93352
_cell_length_c       11.5526
_cell_angle_alpha    90
_cell_angle_beta     90
_cell_angle_gamma    90

_symmetry_Int_Tables_number  123
_chemical_formula_structural  CaNb2CuBrO7
_chemical_formula_sum  CaNb2CuBrO7
_cell_volume  178.74975164036894
_cell_formula_units_Z  1
loop_
  _symmetry_equiv_pos_site_id
 _symmetry_equiv_pos_as_xyz
 1  'x, y, z'
loop_
 _atom_site_type_symbol
 _atom_site_label
 _atom_site_symmetry_multiplicity
 _atom_site_fract_x
 _atom_site_fract_y
 _atom_site_fract_z
 _atom_site_fract_occupancy
 Br  Br1  1  0.00000  0.00000  0.50000  1
 Ca  Ca1  1  0.00000  0.00000  0.00000  1
 Cu  Cu1  1  0.50000  0.50000  0.50000  1
 Nb  Nb1  1  0.50000  0.50000  0.81594  1
 Nb  Nb2  1  0.50000  0.50000  0.18406  1
 O  O1  1  0.00000  0.50000  0.15221  1
 O  O2  1  0.50000  0.00000  0.15221  1
 O  O3  1  0.50000  0.50000  0.34475  1
 O  O4  1  0.50000  0.00000  0.84779  1
 O  O5  1  0.00000  0.50000  0.84779  1
 O  O6  1  0.50000  0.50000  0.65525  1
 O  O7  1  0.50000  0.50000  0.00000  1
