CIF file written using JARVIS-Tools package.
data_ZnHCl
_symmetry_space_group_name_H-M  'P-3m1'
_cell_length_a       3.60422
_cell_length_b       3.60422
_cell_length_c       10.2895
_cell_angle_alpha    90
_cell_angle_beta     90
_cell_angle_gamma    120

_symmetry_Int_Tables_number  164
_chemical_formula_structural  ZnHCl
_chemical_formula_sum  Zn2H2Cl2
_cell_volume  115.75691392229176
_cell_formula_units_Z  2
loop_
  _symmetry_equiv_pos_site_id
 _symmetry_equiv_pos_as_xyz
 1  'x, y, z'
loop_
 _atom_site_type_symbol
 _atom_site_label
 _atom_site_symmetry_multiplicity
 _atom_site_fract_x
 _atom_site_fract_y
 _atom_site_fract_z
 _atom_site_fract_occupancy
 Cl  Cl1  1  0.33333  0.66667  0.14771  1
 Cl  Cl2  1  0.66667  0.33333  0.85229  1
 H  H1  1  0.33333  0.66667  0.57741  1
 H  H2  1  0.66667  0.33333  0.42259  1
 Zn  Zn1  1  0.33333  0.66667  0.72569  1
 Zn  Zn2  1  0.66667  0.33333  0.27431  1
