CIF file written using JARVIS-Tools package.
data_LiVNiO4
_symmetry_space_group_name_H-M  'Pnma'
_cell_length_a       4.83941
_cell_length_b       5.94087
_cell_length_c       10.162
_cell_angle_alpha    90
_cell_angle_beta     90
_cell_angle_gamma    90

_symmetry_Int_Tables_number  62
_chemical_formula_structural  LiVNiO4
_chemical_formula_sum  Li4V4Ni4O6
_cell_volume  292.1602227410184
_cell_formula_units_Z  4
loop_
  _symmetry_equiv_pos_site_id
 _symmetry_equiv_pos_as_xyz
 1  'x, y, z'
loop_
 _atom_site_type_symbol
 _atom_site_label
 _atom_site_symmetry_multiplicity
 _atom_site_fract_x
 _atom_site_fract_y
 _atom_site_fract_z
 _atom_site_fract_occupancy
 Li  Li1  1  1.00000  0.00000  0.00000  1
 Li  Li2  1  0.50000  0.00000  0.50000  1
 Li  Li3  1  1.00000  0.50000  0.00000  1
 Li  Li4  1  0.50000  0.50000  0.50000  1
 Ni  Ni1  1  0.50366  0.25000  0.76596  1
 Ni  Ni2  1  0.49634  0.75000  0.23404  1
 Ni  Ni3  1  0.99634  0.25000  0.26596  1
 Ni  Ni4  1  0.00366  0.75000  0.73404  1
 O  O1  1  0.21383  0.75000  0.90532  1
 O  O2  1  0.79395  0.75000  0.56283  1
 O  O3  1  0.77225  0.98495  0.33130  1
 O  O4  1  0.20605  0.25000  0.43717  1
 O  O5  1  0.78617  0.25000  0.09468  1
 O  O6  1  0.71383  0.25000  0.59468  1
 O  O7  1  0.29395  0.25000  0.93717  1
 O  O8  1  0.70605  0.75000  0.06283  1
 O  O9  1  0.27225  0.01505  0.16870  1
 O  O10  1  0.72775  0.51505  0.83130  1
 O  O11  1  0.27225  0.48495  0.16870  1
 O  O12  1  0.22775  0.48495  0.66870  1
 O  O13  1  0.28617  0.75000  0.40532  1
 O  O14  1  0.77225  0.51505  0.33130  1
 O  O15  1  0.22775  0.01505  0.66870  1
 O  O16  1  0.72775  0.98495  0.83130  1
 V  V1  1  0.57120  0.75000  0.90531  1
 V  V2  1  0.92880  0.75000  0.40531  1
 V  V3  1  0.07120  0.25000  0.59469  1
 V  V4  1  0.42880  0.25000  0.09469  1
