CIF file written using JARVIS-Tools package.
data_Cr3CoP4O16
_symmetry_space_group_name_H-M  'Pm'
_cell_length_a       5.64061
_cell_length_b       4.6983
_cell_length_c       9.72603
_cell_angle_alpha    89.5516
_cell_angle_beta     90
_cell_angle_gamma    90

_symmetry_Int_Tables_number  6
_chemical_formula_structural  Cr3CoP4O16
_chemical_formula_sum  Cr3CoP4O6
_cell_volume  257.7446880921266
_cell_formula_units_Z  1
loop_
  _symmetry_equiv_pos_site_id
 _symmetry_equiv_pos_as_xyz
 1  'x, y, z'
loop_
 _atom_site_type_symbol
 _atom_site_label
 _atom_site_symmetry_multiplicity
 _atom_site_fract_x
 _atom_site_fract_y
 _atom_site_fract_z
 _atom_site_fract_occupancy
 Co  Co1  1  0.00000  0.05803  0.26883  1
 Cr  Cr1  1  0.00000  0.44678  0.77018  1
 Cr  Cr2  1  0.50000  0.55649  0.23054  1
 Cr  Cr3  1  0.50000  0.94605  0.73235  1
 O  O1  1  0.50000  0.17871  0.56603  1
 O  O2  1  0.28998  0.28262  0.33577  1
 O  O3  1  0.71002  0.28262  0.33577  1
 O  O4  1  0.21219  0.73154  0.66689  1
 O  O5  1  0.00000  0.28758  0.10543  1
 O  O6  1  0.28844  0.22893  0.83610  1
 O  O7  1  0.00000  0.20611  0.61206  1
 O  O8  1  0.50000  0.31239  0.06799  1
 O  O9  1  0.00000  0.68457  0.93268  1
 O  O10  1  0.21629  0.75412  0.16189  1
 O  O11  1  0.71156  0.22893  0.83610  1
 O  O12  1  0.50000  0.70198  0.89134  1
 O  O13  1  0.50000  0.80453  0.38548  1
 O  O14  1  0.78781  0.73154  0.66689  1
 O  O15  1  0.78371  0.75412  0.16189  1
 O  O16  1  0.00000  0.82137  0.43565  1
 P  P1  1  0.00000  0.88730  0.58727  1
 P  P2  1  0.00000  0.60849  0.08562  1
 P  P3  1  0.50000  0.38210  0.91527  1
 P  P4  1  0.50000  0.12311  0.41199  1
