CIF file written using JARVIS-Tools package.
data_Li7Co5O12
_symmetry_space_group_name_H-M  'C2/m'
_cell_length_a       6.34775
_cell_length_b       6.34775
_cell_length_c       4.90249
_cell_angle_alpha    82.7747
_cell_angle_beta     82.7748
_cell_angle_gamma    83.926

_symmetry_Int_Tables_number  12
_chemical_formula_structural  Li7Co5O12
_chemical_formula_sum  Li7Co5O2
_cell_volume  193.60169554181897
_cell_formula_units_Z  1
loop_
  _symmetry_equiv_pos_site_id
 _symmetry_equiv_pos_as_xyz
 1  'x, y, z'
loop_
 _atom_site_type_symbol
 _atom_site_label
 _atom_site_symmetry_multiplicity
 _atom_site_fract_x
 _atom_site_fract_y
 _atom_site_fract_z
 _atom_site_fract_occupancy
 Co  Co1  1  0.16406  0.83594  0.00000  1
 Co  Co2  1  0.83594  0.16406  -0.00000  1
 Co  Co3  1  0.66996  0.33004  0.50000  1
 Co  Co4  1  0.50000  0.50000  0.00000  1
 Co  Co5  1  0.33004  0.66996  0.50000  1
 Li  Li1  1  -0.00000  0.00000  0.50000  1
 Li  Li2  1  0.08103  0.40972  0.25532  1
 Li  Li3  1  0.24259  0.24259  0.74289  1
 Li  Li4  1  0.59028  0.91897  0.74468  1
 Li  Li5  1  0.40972  0.08103  0.25532  1
 Li  Li6  1  0.75741  0.75741  0.25711  1
 Li  Li7  1  0.91897  0.59028  0.74468  1
 O  O1  1  0.77488  0.44174  0.13192  1
 O  O2  1  0.11460  0.11460  0.10644  1
 O  O3  1  0.44174  0.77488  0.13192  1
 O  O4  1  0.55826  0.22512  0.86808  1
 O  O5  1  0.88540  0.88540  0.89356  1
 O  O6  1  0.06466  0.70875  0.35957  1
 O  O7  1  0.39166  0.39166  0.36838  1
 O  O8  1  0.70875  0.06466  0.35957  1
 O  O9  1  0.60834  0.60834  0.63162  1
 O  O10  1  0.93534  0.29125  0.64043  1
 O  O11  1  0.22512  0.55826  0.86808  1
 O  O12  1  0.29125  0.93534  0.64043  1
