CIF file written using JARVIS-Tools package.
data_CBrN
_symmetry_space_group_name_H-M  'R3m'
_cell_length_a       4.05742
_cell_length_b       4.05742
_cell_length_c       4.05743
_cell_angle_alpha    99.8966
_cell_angle_beta     99.8966
_cell_angle_gamma    99.8966

_symmetry_Int_Tables_number  160
_chemical_formula_structural  CBrN
_chemical_formula_sum  CBrN
_cell_volume  63.41181168920146
_cell_formula_units_Z  1
loop_
  _symmetry_equiv_pos_site_id
 _symmetry_equiv_pos_as_xyz
 1  'x, y, z'
loop_
 _atom_site_type_symbol
 _atom_site_label
 _atom_site_symmetry_multiplicity
 _atom_site_fract_x
 _atom_site_fract_y
 _atom_site_fract_z
 _atom_site_fract_occupancy
 Br  Br1  1  0.01418  0.01418  0.01418  1
 C  C1  1  0.33050  0.33050  0.33050  1
 N  N1  1  0.53532  0.53532  0.53532  1
