CIF file written using JARVIS-Tools package.
data_USiRu
_symmetry_space_group_name_H-M  'Pnma'
_cell_length_a       4.17262
_cell_length_b       6.72834
_cell_length_c       7.41847
_cell_angle_alpha    90
_cell_angle_beta     90
_cell_angle_gamma    90

_symmetry_Int_Tables_number  62
_chemical_formula_structural  USiRu
_chemical_formula_sum  U4Si4Ru4
_cell_volume  208.27209370460326
_cell_formula_units_Z  4
loop_
  _symmetry_equiv_pos_site_id
 _symmetry_equiv_pos_as_xyz
 1  'x, y, z'
loop_
 _atom_site_type_symbol
 _atom_site_label
 _atom_site_symmetry_multiplicity
 _atom_site_fract_x
 _atom_site_fract_y
 _atom_site_fract_z
 _atom_site_fract_occupancy
 Ru  Ru1  1  0.25000  0.93168  0.63194  1
 Ru  Ru2  1  0.25000  0.56832  0.13194  1
 Ru  Ru3  1  0.75000  0.06832  0.36806  1
 Ru  Ru4  1  0.75000  0.43168  0.86806  1
 Si  Si1  1  0.25000  0.88496  0.30187  1
 Si  Si2  1  0.25000  0.61504  0.80187  1
 Si  Si3  1  0.75000  0.11504  0.69813  1
 Si  Si4  1  0.75000  0.38496  0.19813  1
 U  U1  1  0.25000  0.34573  0.49150  1
 U  U2  1  0.25000  0.15427  0.99150  1
 U  U3  1  0.75000  0.65427  0.50850  1
 U  U4  1  0.75000  0.84573  0.00850  1
