CIF file written using JARVIS-Tools package.
data_H4BrN
_symmetry_space_group_name_H-M  'R-3m'
_cell_length_a       6.16982
_cell_length_b       6.16982
_cell_length_c       6.16982
_cell_angle_alpha    29.3567
_cell_angle_beta     29.3567
_cell_angle_gamma    29.3568

_symmetry_Int_Tables_number  166
_chemical_formula_structural  H4BrN
_chemical_formula_sum  H4BrN
_cell_volume  49.9529194793982
_cell_formula_units_Z  1
loop_
  _symmetry_equiv_pos_site_id
 _symmetry_equiv_pos_as_xyz
 1  'x, y, z'
loop_
 _atom_site_type_symbol
 _atom_site_label
 _atom_site_symmetry_multiplicity
 _atom_site_fract_x
 _atom_site_fract_y
 _atom_site_fract_z
 _atom_site_fract_occupancy
 Br  Br1  1  0.50000  0.50000  0.50000  1
 H  H1  1  0.94175  0.94175  0.94175  1
 H  H2  1  0.05825  0.05825  0.05825  1
 H  H3  1  0.66606  0.66606  0.66606  1
 H  H4  1  0.33394  0.33394  0.33394  1
 N  N1  1  0.00000  0.00000  0.00000  1
