CIF file written using JARVIS-Tools package.
data_Li4MnCo2O7
_symmetry_space_group_name_H-M  'Cm'
_cell_length_a       4.99125
_cell_length_b       4.99125
_cell_length_c       17.491
_cell_angle_alpha    83.4022
_cell_angle_beta     83.4022
_cell_angle_gamma    32.9331

_symmetry_Int_Tables_number  8
_chemical_formula_structural  Li4MnCo2O7
_chemical_formula_sum  Li8Mn2Co4O4
_cell_volume  235.19042139410521
_cell_formula_units_Z  2
loop_
  _symmetry_equiv_pos_site_id
 _symmetry_equiv_pos_as_xyz
 1  'x, y, z'
loop_
 _atom_site_type_symbol
 _atom_site_label
 _atom_site_symmetry_multiplicity
 _atom_site_fract_x
 _atom_site_fract_y
 _atom_site_fract_z
 _atom_site_fract_occupancy
 Co  Co1  1  0.28280  0.28280  0.42764  1
 Co  Co2  1  0.13273  0.13273  0.69757  1
 Co  Co3  1  0.43135  0.43135  0.14558  1
 Co  Co4  1  0.85643  0.85643  0.28513  1
 Li  Li1  1  0.71012  0.71012  0.56220  1
 Li  Li2  1  0.72015  0.72015  0.07867  1
 Li  Li3  1  0.29448  0.29448  0.93129  1
 Li  Li4  1  0.56731  0.56731  0.36093  1
 Li  Li5  1  -0.00296  -0.00296  0.50114  1
 Li  Li6  1  0.40887  0.40887  0.62528  1
 Li  Li7  1  0.85659  0.85659  0.77630  1
 Li  Li8  1  0.14204  0.14204  0.22023  1
 Mn  Mn1  1  0.00741  0.00741  0.00607  1
 Mn  Mn2  1  0.58014  0.58014  0.86040  1
 O  O1  1  0.91066  0.91066  0.38587  1
 O  O2  1  0.35007  0.35007  0.52063  1
 O  O3  1  0.77081  0.77081  0.68060  1
 O  O4  1  0.20865  0.20865  0.83407  1
 O  O5  1  0.80415  0.80415  0.18064  1
 O  O6  1  0.22959  0.22959  0.32016  1
 O  O7  1  0.51428  0.51428  0.76533  1
 O  O8  1  0.05854  0.05854  0.60882  1
 O  O9  1  0.94873  0.94873  0.90361  1
 O  O10  1  0.37445  0.37445  0.04092  1
 O  O11  1  0.06314  0.06314  0.10856  1
 O  O12  1  0.48512  0.48512  0.24714  1
 O  O13  1  0.65617  0.65617  0.45497  1
 O  O14  1  0.63819  0.63819  0.97024  1
