CIF file written using JARVIS-Tools package.
data_ScNCl
_symmetry_space_group_name_H-M  'R-3m'
_cell_length_a       9.35058
_cell_length_b       9.35058
_cell_length_c       9.35058
_cell_angle_alpha    22.1554
_cell_angle_beta     22.1554
_cell_angle_gamma    22.1554

_symmetry_Int_Tables_number  166
_chemical_formula_structural  ScNCl
_chemical_formula_sum  Sc2N2Cl2
_cell_volume  101.94790260908246
_cell_formula_units_Z  2
loop_
  _symmetry_equiv_pos_site_id
 _symmetry_equiv_pos_as_xyz
 1  'x, y, z'
loop_
 _atom_site_type_symbol
 _atom_site_label
 _atom_site_symmetry_multiplicity
 _atom_site_fract_x
 _atom_site_fract_y
 _atom_site_fract_z
 _atom_site_fract_occupancy
 Cl  Cl1  1  0.38709  0.38709  0.38709  1
 Cl  Cl2  1  0.61291  0.61291  0.61291  1
 N  N1  1  0.19643  0.19643  0.19643  1
 N  N2  1  0.80357  0.80357  0.80357  1
 Sc  Sc1  1  0.11597  0.11597  0.11597  1
 Sc  Sc2  1  0.88403  0.88403  0.88403  1
