CIF file written using JARVIS-Tools package.
data_HgH4C2N4Cl2
_symmetry_space_group_name_H-M  'P1'
_cell_length_a       3.94908
_cell_length_b       6.89675
_cell_length_c       6.75346
_cell_angle_alpha    79.0415
_cell_angle_beta     81.7548
_cell_angle_gamma    82.4719

_symmetry_Int_Tables_number  1
_chemical_formula_structural  HgH4C2N4Cl2
_chemical_formula_sum  HgH4C2N4Cl2
_cell_volume  177.69360237294154
_cell_formula_units_Z  1
loop_
  _symmetry_equiv_pos_site_id
 _symmetry_equiv_pos_as_xyz
 1  'x, y, z'
loop_
 _atom_site_type_symbol
 _atom_site_label
 _atom_site_symmetry_multiplicity
 _atom_site_fract_x
 _atom_site_fract_y
 _atom_site_fract_z
 _atom_site_fract_occupancy
 C  C1  1  0.03734  0.99023  0.47341  1
 C  C2  1  0.02800  0.66151  0.42700  1
 Cl  Cl1  1  0.59149  0.28731  0.02175  1
 Cl  Cl2  1  0.51600  0.78629  0.90693  1
 H  H1  1  0.79265  0.61383  0.19172  1
 H  H2  1  0.95785  0.39796  0.34899  1
 H  H3  1  0.27587  0.64583  0.68080  1
 H  H4  1  0.21563  0.41748  0.61828  1
 Hg  Hg1  1  0.05625  0.04304  0.95544  1
 N  N1  1  0.96955  0.86037  0.37392  1
 N  N2  1  0.08543  0.12526  0.54766  1
 N  N3  1  0.92866  0.54937  0.30906  1
 N  N4  1  0.17879  0.56920  0.59030  1
