CIF file written using JARVIS-Tools package.
data_YbGa6Fe6
_symmetry_space_group_name_H-M  'Immm'
_cell_length_a       6.53177
_cell_length_b       6.53177
_cell_length_c       6.53178
_cell_angle_alpha    134.959
_cell_angle_beta     99.5822
_cell_angle_gamma    97.2925

_symmetry_Int_Tables_number  71
_chemical_formula_structural  YbGa6Fe6
_chemical_formula_sum  YbGa6Fe6
_cell_volume  182.10536433559136
_cell_formula_units_Z  1
loop_
  _symmetry_equiv_pos_site_id
 _symmetry_equiv_pos_as_xyz
 1  'x, y, z'
loop_
 _atom_site_type_symbol
 _atom_site_label
 _atom_site_symmetry_multiplicity
 _atom_site_fract_x
 _atom_site_fract_y
 _atom_site_fract_z
 _atom_site_fract_occupancy
 Fe  Fe1  1  0.75394  0.50000  0.25394  1
 Fe  Fe2  1  0.24606  0.50000  0.74606  1
 Fe  Fe3  1  -0.00000  0.00000  0.50000  1
 Fe  Fe4  1  -0.00000  0.50000  0.00000  1
 Fe  Fe5  1  0.50000  0.00000  -0.00000  1
 Fe  Fe6  1  0.50000  0.50000  0.50000  1
 Ga  Ga1  1  0.32296  -0.00000  0.32296  1
 Ga  Ga2  1  0.67704  0.00000  0.67704  1
 Ga  Ga3  1  0.65938  0.65938  -0.00000  1
 Ga  Ga4  1  0.34062  0.34062  0.00000  1
 Ga  Ga5  1  0.17723  0.67723  0.50000  1
 Ga  Ga6  1  0.82277  0.32277  0.50000  1
 Yb  Yb1  1  0.00000  0.00000  0.00000  1
