CIF file written using JARVIS-Tools package.
data_Li4MnCo2O7
_symmetry_space_group_name_H-M  'P1'
_cell_length_a       4.90547
_cell_length_b       4.97336
_cell_length_c       9.85453
_cell_angle_alpha    100.109
_cell_angle_beta     99.478
_cell_angle_gamma    99.6165

_symmetry_Int_Tables_number  1
_chemical_formula_structural  Li4MnCo2O7
_chemical_formula_sum  Li8Mn2Co4O4
_cell_volume  228.65116363252804
_cell_formula_units_Z  2
loop_
  _symmetry_equiv_pos_site_id
 _symmetry_equiv_pos_as_xyz
 1  'x, y, z'
loop_
 _atom_site_type_symbol
 _atom_site_label
 _atom_site_symmetry_multiplicity
 _atom_site_fract_x
 _atom_site_fract_y
 _atom_site_fract_z
 _atom_site_fract_occupancy
 Co  Co1  1  0.42805  0.85672  0.85680  1
 Co  Co2  1  0.28511  0.57079  0.57008  1
 Co  Co3  1  0.85650  0.71306  0.71320  1
 Co  Co4  1  0.57236  0.14376  0.14460  1
 Li  Li1  1  0.14339  0.28849  0.28795  1
 Li  Li2  1  0.71154  0.42635  0.92862  1
 Li  Li3  1  0.29145  0.57043  0.08184  1
 Li  Li4  1  0.57045  0.13764  0.63926  1
 Li  Li5  1  0.00978  0.00474  0.49368  1
 Li  Li6  1  0.86726  0.71635  0.22146  1
 Li  Li7  1  0.41331  0.85891  0.35464  1
 Li  Li8  1  0.14201  0.28777  0.78144  1
 Mn  Mn1  1  0.00221  0.00386  0.00492  1
 Mn  Mn2  1  0.71139  0.42480  0.42401  1
 O  O1  1  0.21059  0.89992  0.68483  1
 O  O2  1  0.06248  0.63409  0.40392  1
 O  O3  1  0.63815  0.75958  0.54021  1
 O  O4  1  0.51955  0.48330  0.25370  1
 O  O5  1  0.50324  0.52989  0.74616  1
 O  O6  1  0.93271  0.38115  0.60270  1
 O  O7  1  0.64700  0.81082  0.03106  1
 O  O8  1  0.76638  0.09045  0.31996  1
 O  O9  1  0.21544  0.93577  0.16611  1
 O  O10  1  0.07213  0.66687  0.88695  1
 O  O11  1  0.35257  0.18977  0.96819  1
 O  O12  1  0.78409  0.04483  0.82413  1
 O  O13  1  0.37425  0.24124  0.46968  1
 O  O14  1  0.91660  0.32866  0.09988  1
