CIF file written using JARVIS-Tools package.
data_SrNCl
_symmetry_space_group_name_H-M  'Amm2'
_cell_length_a       5.48108
_cell_length_b       4.66052
_cell_length_c       4.82186
_cell_angle_alpha    90
_cell_angle_beta     90
_cell_angle_gamma    115.055

_symmetry_Int_Tables_number  38
_chemical_formula_structural  SrNCl
_chemical_formula_sum  SrNCl
_cell_volume  111.58235910123757
_cell_formula_units_Z  1
loop_
  _symmetry_equiv_pos_site_id
 _symmetry_equiv_pos_as_xyz
 1  'x, y, z'
loop_
 _atom_site_type_symbol
 _atom_site_label
 _atom_site_symmetry_multiplicity
 _atom_site_fract_x
 _atom_site_fract_y
 _atom_site_fract_z
 _atom_site_fract_occupancy
 Cl  Cl1  1  -0.25597  -0.22054  0.00000  1
 N  N1  1  0.31566  0.06487  0.00000  1
 Sr  Sr1  1  0.14100  0.47787  0.00000  1
