CIF file written using JARVIS-Tools package.
data_NaTiSi2O6
_symmetry_space_group_name_H-M  'C2/c'
_cell_length_a       5.28782
_cell_length_b       6.60912
_cell_length_c       6.6091
_cell_angle_alpha    83.3355
_cell_angle_beta     78.2142
_cell_angle_gamma    78.2106

_symmetry_Int_Tables_number  15
_chemical_formula_structural  NaTiSi2O6
_chemical_formula_sum  Na2Ti2Si4O2
_cell_volume  220.66851992198949
_cell_formula_units_Z  2
loop_
  _symmetry_equiv_pos_site_id
 _symmetry_equiv_pos_as_xyz
 1  'x, y, z'
loop_
 _atom_site_type_symbol
 _atom_site_label
 _atom_site_symmetry_multiplicity
 _atom_site_fract_x
 _atom_site_fract_y
 _atom_site_fract_z
 _atom_site_fract_occupancy
 Na  Na1  1  0.25004  0.19330  0.30682  1
 Na  Na2  1  0.74996  0.80670  0.69318  1
 O  O1  1  0.18618  0.60551  0.62353  1
 O  O2  1  0.68616  0.12356  0.10546  1
 O  O3  1  0.35063  0.53252  0.20735  1
 O  O4  1  0.64937  0.46748  0.79265  1
 O  O5  1  0.81382  0.39449  0.37647  1
 O  O6  1  0.50841  0.16102  0.63467  1
 O  O7  1  0.99158  0.86537  0.33894  1
 O  O8  1  0.00842  0.13463  0.66106  1
 O  O9  1  0.85063  0.70735  0.03249  1
 O  O10  1  0.14937  0.29265  0.96751  1
 O  O11  1  0.49159  0.83898  0.36533  1
 O  O12  1  0.31384  0.87644  0.89454  1
 Si  Si1  1  0.24086  0.11313  0.80092  1
 Si  Si2  1  0.75914  0.88687  0.19908  1
 Si  Si3  1  0.74085  0.30086  0.61316  1
 Si  Si4  1  0.25915  0.69914  0.38684  1
 Ti  Ti1  1  0.24999  0.58763  0.91236  1
 Ti  Ti2  1  0.75001  0.41237  0.08764  1
