CIF file written using JARVIS-Tools package.
data_Tb5Pt3
_symmetry_space_group_name_H-M  'P6_3/mcm'
_cell_length_a       8.43937
_cell_length_b       8.43937
_cell_length_c       6.19857
_cell_angle_alpha    90
_cell_angle_beta     90
_cell_angle_gamma    120

_symmetry_Int_Tables_number  193
_chemical_formula_structural  Tb5Pt3
_chemical_formula_sum  Tb0Pt6
_cell_volume  382.33362871378745
_cell_formula_units_Z  2
loop_
  _symmetry_equiv_pos_site_id
 _symmetry_equiv_pos_as_xyz
 1  'x, y, z'
loop_
 _atom_site_type_symbol
 _atom_site_label
 _atom_site_symmetry_multiplicity
 _atom_site_fract_x
 _atom_site_fract_y
 _atom_site_fract_z
 _atom_site_fract_occupancy
 Pt  Pt1  1  0.39304  0.39304  0.75000  1
 Pt  Pt2  1  0.60696  0.00000  0.75000  1
 Pt  Pt3  1  0.00000  0.60696  0.75000  1
 Pt  Pt4  1  0.60696  0.60696  0.25000  1
 Pt  Pt5  1  0.39304  0.00000  0.25000  1
 Pt  Pt6  1  -0.00000  0.39304  0.25000  1
 Tb  Tb1  1  0.66667  0.33333  0.00000  1
 Tb  Tb2  1  0.33333  0.66667  0.00000  1
 Tb  Tb3  1  0.33333  0.66667  0.50000  1
 Tb  Tb4  1  0.66667  0.33333  0.50000  1
 Tb  Tb5  1  0.75397  0.75397  0.75000  1
 Tb  Tb6  1  0.24603  0.00000  0.75000  1
 Tb  Tb7  1  -0.00000  0.24603  0.75000  1
 Tb  Tb8  1  0.24603  0.24603  0.25000  1
 Tb  Tb9  1  0.75397  0.00000  0.25000  1
 Tb  Tb10  1  0.00000  0.75397  0.25000  1
