CIF file written using JARVIS-Tools package.
data_Li7Mn4CoO12
_symmetry_space_group_name_H-M  'C2'
_cell_length_a       6.42115
_cell_length_b       6.42115
_cell_length_c       4.90217
_cell_angle_alpha    82.935
_cell_angle_beta     82.935
_cell_angle_gamma    83.2597

_symmetry_Int_Tables_number  5
_chemical_formula_structural  Li7Mn4CoO12
_chemical_formula_sum  Li7Mn4CoO2
_cell_volume  197.98887875830502
_cell_formula_units_Z  1
loop_
  _symmetry_equiv_pos_site_id
 _symmetry_equiv_pos_as_xyz
 1  'x, y, z'
loop_
 _atom_site_type_symbol
 _atom_site_label
 _atom_site_symmetry_multiplicity
 _atom_site_fract_x
 _atom_site_fract_y
 _atom_site_fract_z
 _atom_site_fract_occupancy
 Co  Co1  1  0.16820  0.83180  0.50000  1
 Li  Li1  1  0.33227  0.66773  0.00000  1
 Li  Li2  1  0.25027  0.25389  0.24430  1
 Li  Li3  1  0.74611  0.74973  0.75570  1
 Li  Li4  1  0.09200  0.42985  0.75730  1
 Li  Li5  1  0.92708  0.58687  0.24702  1
 Li  Li6  1  0.57015  0.90800  0.24270  1
 Li  Li7  1  0.41313  0.07292  0.75298  1
 Mn  Mn1  1  0.00618  0.99382  0.00000  1
 Mn  Mn2  1  0.49611  0.50389  0.50000  1
 Mn  Mn3  1  0.83006  0.16994  0.50000  1
 Mn  Mn4  1  0.66616  0.33384  0.00000  1
 O  O1  1  0.54949  0.22249  0.36628  1
 O  O2  1  0.04204  0.72986  0.86594  1
 O  O3  1  0.71916  0.05217  0.87818  1
 O  O4  1  0.22196  0.55031  0.39134  1
 O  O5  1  0.10954  0.10977  0.63105  1
 O  O6  1  0.77751  0.45051  0.63372  1
 O  O7  1  0.27014  0.95796  0.13406  1
 O  O8  1  0.44969  0.77804  0.60866  1
 O  O9  1  0.94783  0.28084  0.12182  1
 O  O10  1  0.89023  0.89046  0.36895  1
 O  O11  1  0.62622  0.60152  0.13905  1
 O  O12  1  0.39848  0.37378  0.86095  1
