CIF file written using JARVIS-Tools package.
data_ClO
_symmetry_space_group_name_H-M  'P1'
_cell_length_a       4.27564
_cell_length_b       3.3434
_cell_length_c       6.10309
_cell_angle_alpha    53.7658
_cell_angle_beta     102.12
_cell_angle_gamma    81.5825

_symmetry_Int_Tables_number  1
_chemical_formula_structural  ClO
_chemical_formula_sum  Cl2O2
_cell_volume  64.63004043754677
_cell_formula_units_Z  2
loop_
  _symmetry_equiv_pos_site_id
 _symmetry_equiv_pos_as_xyz
 1  'x, y, z'
loop_
 _atom_site_type_symbol
 _atom_site_label
 _atom_site_symmetry_multiplicity
 _atom_site_fract_x
 _atom_site_fract_y
 _atom_site_fract_z
 _atom_site_fract_occupancy
 Cl  Cl1  1  0.00200  0.23280  0.06933  1
 Cl  Cl2  1  0.50205  0.23296  0.56939  1
 O  O1  1  0.23614  0.09899  0.72221  1
 O  O2  1  0.73604  0.09903  0.22210  1
