CIF file written using JARVIS-Tools package.
data_LiMnCrO4
_symmetry_space_group_name_H-M  'Imma'
_cell_length_a       5.68925
_cell_length_b       5.68925
_cell_length_c       5.68926
_cell_angle_alpha    119.03
_cell_angle_beta     119.273
_cell_angle_gamma    91.4769

_symmetry_Int_Tables_number  74
_chemical_formula_structural  LiMnCrO4
_chemical_formula_sum  Li2Mn2Cr2O8
_cell_volume  131.8347341656289
_cell_formula_units_Z  2
loop_
  _symmetry_equiv_pos_site_id
 _symmetry_equiv_pos_as_xyz
 1  'x, y, z'
loop_
 _atom_site_type_symbol
 _atom_site_label
 _atom_site_symmetry_multiplicity
 _atom_site_fract_x
 _atom_site_fract_y
 _atom_site_fract_z
 _atom_site_fract_occupancy
 Cr  Cr1  1  0.50000  0.50000  -0.00000  1
 Cr  Cr2  1  0.00000  0.50000  0.50000  1
 Li  Li1  1  0.87430  0.12430  0.75000  1
 Li  Li2  1  0.12570  0.87570  0.25000  1
 Mn  Mn1  1  0.50000  0.50000  0.50000  1
 Mn  Mn2  1  0.50000  -0.00000  -0.00000  1
 O  O1  1  0.71583  0.74263  0.97320  1
 O  O2  1  0.26943  0.74263  0.52680  1
 O  O3  1  0.25636  0.28146  0.52510  1
 O  O4  1  0.25636  0.73126  0.97490  1
 O  O5  1  0.74364  0.71854  0.47490  1
 O  O6  1  0.74364  0.26874  0.02510  1
 O  O7  1  0.73057  0.25737  0.47320  1
 O  O8  1  0.28417  0.25737  0.02680  1
