CIF file written using JARVIS-Tools package.
data_BaLa2Cl8
_symmetry_space_group_name_H-M  'I-4'
_cell_length_a       9.8261
_cell_length_b       9.82472
_cell_length_c       9.82648
_cell_angle_alpha    99.6532
_cell_angle_beta     99.6584
_cell_angle_gamma    131.645

_symmetry_Int_Tables_number  82
_chemical_formula_structural  BaLa2Cl8
_chemical_formula_sum  Ba2La4Cl6
_cell_volume  646.7231225324625
_cell_formula_units_Z  2
loop_
  _symmetry_equiv_pos_site_id
 _symmetry_equiv_pos_as_xyz
 1  'x, y, z'
loop_
 _atom_site_type_symbol
 _atom_site_label
 _atom_site_symmetry_multiplicity
 _atom_site_fract_x
 _atom_site_fract_y
 _atom_site_fract_z
 _atom_site_fract_occupancy
 Ba  Ba1  1  0.75000  0.24999  0.50004  1
 Ba  Ba2  1  -0.00015  -0.00004  -0.00020  1
 Cl  Cl1  1  0.36155  0.44215  0.19035  1
 Cl  Cl2  1  0.14657  0.45543  0.45232  1
 Cl  Cl3  1  0.30573  0.85338  0.30885  1
 Cl  Cl4  1  0.57993  0.29329  0.22579  1
 Cl  Cl5  1  0.00308  0.69431  0.54773  1
 Cl  Cl6  1  0.06747  0.35399  0.77424  1
 Cl  Cl7  1  0.91525  0.30567  0.06825  1
 Cl  Cl8  1  0.15304  0.08476  0.39052  1
 Cl  Cl9  1  0.23746  0.84699  0.93175  1
 Cl  Cl10  1  0.82888  0.63853  0.08068  1
 Cl  Cl11  1  0.69427  0.76260  0.60951  1
 Cl  Cl12  1  0.55772  0.74810  0.91934  1
 Cl  Cl13  1  0.25190  0.17120  0.80961  1
 Cl  Cl14  1  0.54453  -0.00314  0.69120  1
 Cl  Cl15  1  0.70673  0.93252  0.28652  1
 Cl  Cl16  1  0.64602  0.42028  0.71350  1
 La  La1  1  0.57196  0.21467  0.91827  1
 La  La2  1  0.78537  0.70362  0.35728  1
 La  La3  1  0.34631  0.42807  0.64269  1
 La  La4  1  0.29638  0.65367  0.08176  1
