CIF file written using JARVIS-Tools package.
data_Tb5Pb3
_symmetry_space_group_name_H-M  'P6_3/mcm'
_cell_length_a       9.05058
_cell_length_b       9.05058
_cell_length_c       6.62088
_cell_angle_alpha    90
_cell_angle_beta     90
_cell_angle_gamma    120

_symmetry_Int_Tables_number  193
_chemical_formula_structural  Tb5Pb3
_chemical_formula_sum  Tb0Pb6
_cell_volume  469.67693913823524
_cell_formula_units_Z  2
loop_
  _symmetry_equiv_pos_site_id
 _symmetry_equiv_pos_as_xyz
 1  'x, y, z'
loop_
 _atom_site_type_symbol
 _atom_site_label
 _atom_site_symmetry_multiplicity
 _atom_site_fract_x
 _atom_site_fract_y
 _atom_site_fract_z
 _atom_site_fract_occupancy
 Pb  Pb1  1  0.39427  0.39427  0.75000  1
 Pb  Pb2  1  0.60573  0.00000  0.75000  1
 Pb  Pb3  1  0.00000  0.60573  0.75000  1
 Pb  Pb4  1  0.60573  0.60573  0.25000  1
 Pb  Pb5  1  0.39427  -0.00000  0.25000  1
 Pb  Pb6  1  -0.00000  0.39427  0.25000  1
 Tb  Tb1  1  0.66667  0.33333  0.00000  1
 Tb  Tb2  1  0.33333  0.66667  0.00000  1
 Tb  Tb3  1  0.33333  0.66667  0.50000  1
 Tb  Tb4  1  0.66667  0.33333  0.50000  1
 Tb  Tb5  1  0.76308  0.76308  0.75000  1
 Tb  Tb6  1  0.23692  -0.00000  0.75000  1
 Tb  Tb7  1  -0.00000  0.23692  0.75000  1
 Tb  Tb8  1  0.23692  0.23692  0.25000  1
 Tb  Tb9  1  0.76308  0.00000  0.25000  1
 Tb  Tb10  1  0.00000  0.76308  0.25000  1
