CIF file written using JARVIS-Tools package.
data_Ho3TaO7
_symmetry_space_group_name_H-M  'Cmme'
_cell_length_a       8.09562
_cell_length_b       8.09563
_cell_length_c       5.32801
_cell_angle_alpha    90
_cell_angle_beta     90
_cell_angle_gamma    125.497

_symmetry_Int_Tables_number  67
_chemical_formula_structural  Ho3TaO7
_chemical_formula_sum  Ho6Ta2O4
_cell_volume  284.29539990265556
_cell_formula_units_Z  2
loop_
  _symmetry_equiv_pos_site_id
 _symmetry_equiv_pos_as_xyz
 1  'x, y, z'
loop_
 _atom_site_type_symbol
 _atom_site_label
 _atom_site_symmetry_multiplicity
 _atom_site_fract_x
 _atom_site_fract_y
 _atom_site_fract_z
 _atom_site_fract_occupancy
 Ho  Ho1  1  -0.00000  0.50000  0.00000  1
 Ho  Ho2  1  0.50000  -0.00000  0.00000  1
 Ho  Ho3  1  0.62017  0.37983  0.47276  1
 Ho  Ho4  1  0.12017  0.87983  0.52724  1
 Ho  Ho5  1  0.87983  0.12017  0.47276  1
 Ho  Ho6  1  0.37983  0.62017  0.52724  1
 O  O1  1  0.75000  0.25000  0.24354  1
 O  O2  1  0.83830  0.59789  0.76332  1
 O  O3  1  0.01267  0.98733  0.78722  1
 O  O4  1  0.98733  0.01267  0.21278  1
 O  O5  1  0.40211  0.16170  0.76332  1
 O  O6  1  0.25000  0.75000  0.75646  1
 O  O7  1  0.33830  0.09789  0.23668  1
 O  O8  1  0.66170  0.90211  0.76332  1
 O  O9  1  0.48733  0.51267  0.78722  1
 O  O10  1  0.09789  0.33830  0.76332  1
 O  O11  1  0.90211  0.66170  0.23668  1
 O  O12  1  0.59789  0.83830  0.23668  1
 O  O13  1  0.51267  0.48733  0.21278  1
 O  O14  1  0.16170  0.40211  0.23668  1
 Ta  Ta1  1  0.25000  0.25000  0.00000  1
 Ta  Ta2  1  0.75000  0.75000  0.00000  1
