CIF file written using JARVIS-Tools package.
data_Pr3CBr5
_symmetry_space_group_name_H-M  'P-1'
_cell_length_a       7.60236
_cell_length_b       9.09504
_cell_length_c       9.1606
_cell_angle_alpha    108.28
_cell_angle_beta     97.66
_cell_angle_gamma    106.34

_symmetry_Int_Tables_number  2
_chemical_formula_structural  Pr3CBr5
_chemical_formula_sum  Pr6C2Br0
_cell_volume  559.8237689505961
_cell_formula_units_Z  2
loop_
  _symmetry_equiv_pos_site_id
 _symmetry_equiv_pos_as_xyz
 1  'x, y, z'
loop_
 _atom_site_type_symbol
 _atom_site_label
 _atom_site_symmetry_multiplicity
 _atom_site_fract_x
 _atom_site_fract_y
 _atom_site_fract_z
 _atom_site_fract_occupancy
 Br  Br1  1  0.09701  0.37434  0.81719  1
 Br  Br2  1  0.63593  0.51755  0.71475  1
 Br  Br3  1  0.26582  0.08555  0.46991  1
 Br  Br4  1  0.45290  0.81422  0.08933  1
 Br  Br5  1  0.73418  0.91445  0.53009  1
 Br  Br6  1  0.83439  0.28080  0.37149  1
 Br  Br7  1  0.16561  0.71920  0.62851  1
 Br  Br8  1  0.90299  0.62566  0.18281  1
 Br  Br9  1  0.36407  0.48245  0.28525  1
 Br  Br10  1  0.54710  0.18578  0.91067  1
 C  C1  1  0.09317  0.03434  0.04566  1
 C  C2  1  0.90683  0.96566  0.95434  1
 Pr  Pr1  1  0.40078  0.15878  0.20384  1
 Pr  Pr2  1  0.59922  0.84122  0.79616  1
 Pr  Pr3  1  0.97672  0.28762  0.08492  1
 Pr  Pr4  1  0.02328  0.71238  0.91508  1
 Pr  Pr5  1  0.11163  0.04095  0.76280  1
 Pr  Pr6  1  0.88837  0.95905  0.23720  1
