CIF file written using JARVIS-Tools package.
data_PCl2
_symmetry_space_group_name_H-M  'P6/mmm'
_cell_length_a       4.745
_cell_length_b       4.745
_cell_length_c       3.15092
_cell_angle_alpha    90
_cell_angle_beta     90
_cell_angle_gamma    120

_symmetry_Int_Tables_number  191
_chemical_formula_structural  PCl2
_chemical_formula_sum  PCl2
_cell_volume  61.43856129498019
_cell_formula_units_Z  1
loop_
  _symmetry_equiv_pos_site_id
 _symmetry_equiv_pos_as_xyz
 1  'x, y, z'
loop_
 _atom_site_type_symbol
 _atom_site_label
 _atom_site_symmetry_multiplicity
 _atom_site_fract_x
 _atom_site_fract_y
 _atom_site_fract_z
 _atom_site_fract_occupancy
 Cl  Cl1  1  0.33333  0.66667  0.00000  1
 Cl  Cl2  1  0.66667  0.33333  0.00000  1
 P  P1  1  0.00000  0.00000  0.00000  1
