CIF file written using JARVIS-Tools package.
data_LiAlAu
_symmetry_space_group_name_H-M  'Amm2'
_cell_length_a       7.00622
_cell_length_b       2.8814
_cell_length_c       2.7979
_cell_angle_alpha    90
_cell_angle_beta     90
_cell_angle_gamma    101.833

_symmetry_Int_Tables_number  38
_chemical_formula_structural  LiAlAu
_chemical_formula_sum  LiAlAu
_cell_volume  55.282950690288544
_cell_formula_units_Z  1
loop_
  _symmetry_equiv_pos_site_id
 _symmetry_equiv_pos_as_xyz
 1  'x, y, z'
loop_
 _atom_site_type_symbol
 _atom_site_label
 _atom_site_symmetry_multiplicity
 _atom_site_fract_x
 _atom_site_fract_y
 _atom_site_fract_z
 _atom_site_fract_occupancy
 Al  Al1  1  0.43238  0.08607  0.00000  1
 Au  Au1  1  0.10454  0.42217  0.00000  1
 Li  Li1  1  -0.21977  -0.23998  0.00000  1
