CIF file written using JARVIS-Tools package.
data_Y3MnAu5
_symmetry_space_group_name_H-M  'R-3'
_cell_length_a       7.79844
_cell_length_b       7.79844
_cell_length_c       7.79844
_cell_angle_alpha    66.2996
_cell_angle_beta     66.2996
_cell_angle_gamma    66.2996

_symmetry_Int_Tables_number  148
_chemical_formula_structural  Y3MnAu5
_chemical_formula_sum  Y6Mn2Au0
_cell_volume  380.94778448557804
_cell_formula_units_Z  2
loop_
  _symmetry_equiv_pos_site_id
 _symmetry_equiv_pos_as_xyz
 1  'x, y, z'
loop_
 _atom_site_type_symbol
 _atom_site_label
 _atom_site_symmetry_multiplicity
 _atom_site_fract_x
 _atom_site_fract_y
 _atom_site_fract_z
 _atom_site_fract_occupancy
 Au  Au1  1  0.06099  0.44644  0.68286  1
 Au  Au2  1  0.68286  0.06099  0.44644  1
 Au  Au3  1  0.50000  0.50000  0.50000  1
 Au  Au4  1  0.80175  0.80175  0.80175  1
 Au  Au5  1  0.00000  0.00000  0.00000  1
 Au  Au6  1  0.93901  0.55356  0.31714  1
 Au  Au7  1  0.31714  0.93901  0.55356  1
 Au  Au8  1  0.55356  0.31714  0.93901  1
 Au  Au9  1  0.44644  0.68286  0.06099  1
 Au  Au10  1  0.19825  0.19825  0.19825  1
 Mn  Mn1  1  0.34588  0.34588  0.34588  1
 Mn  Mn2  1  0.65412  0.65412  0.65412  1
 Y  Y1  1  0.80865  0.37924  0.10830  1
 Y  Y2  1  0.37924  0.10830  0.80865  1
 Y  Y3  1  0.10830  0.80865  0.37924  1
 Y  Y4  1  0.19135  0.62076  0.89170  1
 Y  Y5  1  0.62076  0.89170  0.19135  1
 Y  Y6  1  0.89170  0.19135  0.62076  1
