CIF file written using JARVIS-Tools package.
data_Li4MnCo2O7
_symmetry_space_group_name_H-M  'C2/m'
_cell_length_a       10.226
_cell_length_b       10.226
_cell_length_c       4.95847
_cell_angle_alpha    85.4852
_cell_angle_beta     85.4852
_cell_angle_gamma    152.133

_symmetry_Int_Tables_number  12
_chemical_formula_structural  Li4MnCo2O7
_chemical_formula_sum  Li8Mn2Co4O4
_cell_volume  229.04597727347664
_cell_formula_units_Z  2
loop_
  _symmetry_equiv_pos_site_id
 _symmetry_equiv_pos_as_xyz
 1  'x, y, z'
loop_
 _atom_site_type_symbol
 _atom_site_label
 _atom_site_symmetry_multiplicity
 _atom_site_fract_x
 _atom_site_fract_y
 _atom_site_fract_z
 _atom_site_fract_occupancy
 Co  Co1  1  0.78579  0.21421  -0.00000  1
 Co  Co2  1  0.35754  0.64246  0.00000  1
 Co  Co3  1  0.64246  0.35754  -0.00000  1
 Co  Co4  1  0.21421  0.78579  0.00000  1
 Li  Li1  1  0.50000  0.50000  -0.00000  1
 Li  Li2  1  0.43158  0.56842  0.50000  1
 Li  Li3  1  0.85822  0.14178  0.50000  1
 Li  Li4  1  0.56842  0.43158  0.50000  1
 Li  Li5  1  0.14178  0.85822  0.50000  1
 Li  Li6  1  0.71386  0.28614  0.50000  1
 Li  Li7  1  0.28614  0.71386  0.50000  1
 Li  Li8  1  0.00000  -0.00000  0.50000  1
 Mn  Mn1  1  0.92883  0.07117  0.00000  1
 Mn  Mn2  1  0.07117  0.92883  -0.00000  1
 O  O1  1  0.38640  0.10081  0.77808  1
 O  O2  1  0.95354  0.52384  0.78308  1
 O  O3  1  0.52384  0.95354  0.78308  1
 O  O4  1  0.10081  0.38640  0.77808  1
 O  O5  1  0.17038  0.32188  0.22637  1
 O  O6  1  0.77853  0.77853  0.23103  1
 O  O7  1  0.47616  0.04646  0.21692  1
 O  O8  1  0.89919  0.61360  0.22192  1
 O  O9  1  0.04646  0.47616  0.21692  1
 O  O10  1  0.61360  0.89919  0.22192  1
 O  O11  1  0.22147  0.22147  0.76897  1
 O  O12  1  0.82962  0.67812  0.77363  1
 O  O13  1  0.32188  0.17038  0.22637  1
 O  O14  1  0.67812  0.82962  0.77363  1
