CIF file written using JARVIS-Tools package.
data_CuF
_symmetry_space_group_name_H-M  'C2/m'
_cell_length_a       2.83509
_cell_length_b       2.82477
_cell_length_c       3.98149
_cell_angle_alpha    69.192
_cell_angle_beta     95.117
_cell_angle_gamma    60.0742

_symmetry_Int_Tables_number  12
_chemical_formula_structural  CuF
_chemical_formula_sum  CuF
_cell_volume  24.395283778893134
_cell_formula_units_Z  1
loop_
  _symmetry_equiv_pos_site_id
 _symmetry_equiv_pos_as_xyz
 1  'x, y, z'
loop_
 _atom_site_type_symbol
 _atom_site_label
 _atom_site_symmetry_multiplicity
 _atom_site_fract_x
 _atom_site_fract_y
 _atom_site_fract_z
 _atom_site_fract_occupancy
 Cu  Cu1  1  0.95556  0.00065  0.00230  1
 F  F1  1  0.45579  0.50006  0.50227  1
