CIF file written using JARVIS-Tools package.
data_CuIO3
_symmetry_space_group_name_H-M  'R3m'
_cell_length_a       4.60564
_cell_length_b       4.60564
_cell_length_c       4.60563
_cell_angle_alpha    81.801
_cell_angle_beta     81.801
_cell_angle_gamma    81.801

_symmetry_Int_Tables_number  160
_chemical_formula_structural  CuIO3
_chemical_formula_sum  CuIO3
_cell_volume  94.95898305790976
_cell_formula_units_Z  1
loop_
  _symmetry_equiv_pos_site_id
 _symmetry_equiv_pos_as_xyz
 1  'x, y, z'
loop_
 _atom_site_type_symbol
 _atom_site_label
 _atom_site_symmetry_multiplicity
 _atom_site_fract_x
 _atom_site_fract_y
 _atom_site_fract_z
 _atom_site_fract_occupancy
 Cu  Cu1  1  0.14697  0.14697  0.14697  1
 I  I1  1  0.47897  0.47897  0.47897  1
 O  O1  1  0.89058  0.41058  0.41058  1
 O  O2  1  0.41058  0.89058  0.41058  1
 O  O3  1  0.41058  0.41058  0.89058  1
