CIF file written using JARVIS-Tools package.
data_NaCl3
_symmetry_space_group_name_H-M  'Pnma'
_cell_length_a       5.66205
_cell_length_b       7.89332
_cell_length_c       8.35767
_cell_angle_alpha    90
_cell_angle_beta     90
_cell_angle_gamma    90

_symmetry_Int_Tables_number  62
_chemical_formula_structural  NaCl3
_chemical_formula_sum  Na4Cl2
_cell_volume  373.52378593271135
_cell_formula_units_Z  4
loop_
  _symmetry_equiv_pos_site_id
 _symmetry_equiv_pos_as_xyz
 1  'x, y, z'
loop_
 _atom_site_type_symbol
 _atom_site_label
 _atom_site_symmetry_multiplicity
 _atom_site_fract_x
 _atom_site_fract_y
 _atom_site_fract_z
 _atom_site_fract_occupancy
 Cl  Cl1  1  0.25000  0.34708  0.64082  1
 Cl  Cl2  1  0.25000  0.15292  0.14082  1
 Cl  Cl3  1  0.75000  0.65292  0.35918  1
 Cl  Cl4  1  0.75000  0.84708  0.85918  1
 Cl  Cl5  1  0.25000  0.78342  0.58057  1
 Cl  Cl6  1  0.25000  0.71658  0.08057  1
 Cl  Cl7  1  0.75000  0.21658  0.41943  1
 Cl  Cl8  1  0.75000  0.28342  0.91943  1
 Cl  Cl9  1  0.25000  0.54408  0.87470  1
 Cl  Cl10  1  0.25000  0.95592  0.37470  1
 Cl  Cl11  1  0.75000  0.45592  0.12530  1
 Cl  Cl12  1  0.75000  0.04408  0.62530  1
 Na  Na1  1  0.25000  0.04038  0.82153  1
 Na  Na2  1  0.25000  0.45962  0.32153  1
 Na  Na3  1  0.75000  0.95962  0.17847  1
 Na  Na4  1  0.75000  0.54038  0.67847  1
