CIF file written using JARVIS-Tools package.
data_ZnH6C2
_symmetry_space_group_name_H-M  'P2_1/c'
_cell_length_a       6.90064
_cell_length_b       3.91999
_cell_length_c       7.72712
_cell_angle_alpha    56.5412
_cell_angle_beta     90
_cell_angle_gamma    90

_symmetry_Int_Tables_number  14
_chemical_formula_structural  ZnH6C2
_chemical_formula_sum  Zn2H2C4
_cell_volume  174.3831097064733
_cell_formula_units_Z  2
loop_
  _symmetry_equiv_pos_site_id
 _symmetry_equiv_pos_as_xyz
 1  'x, y, z'
loop_
 _atom_site_type_symbol
 _atom_site_label
 _atom_site_symmetry_multiplicity
 _atom_site_fract_x
 _atom_site_fract_y
 _atom_site_fract_z
 _atom_site_fract_occupancy
 C  C1  1  0.82141  0.84605  0.22716  1
 C  C2  1  0.32141  0.15395  0.27284  1
 C  C3  1  0.67859  0.84605  0.72716  1
 C  C4  1  0.17859  0.15395  0.77284  1
 H  H1  1  0.19145  0.90049  0.75101  1
 H  H2  1  0.37304  0.42506  0.12679  1
 H  H3  1  0.12696  0.42506  0.62679  1
 H  H4  1  0.62696  0.57494  0.87321  1
 H  H5  1  0.87304  0.57494  0.37321  1
 H  H6  1  0.30855  0.90049  0.25101  1
 H  H7  1  0.80855  0.09951  0.24899  1
 H  H8  1  0.17708  0.21727  0.30923  1
 H  H9  1  0.32292  0.21727  0.80923  1
 H  H10  1  0.82292  0.78273  0.69077  1
 H  H11  1  0.67708  0.78273  0.19077  1
 H  H12  1  0.69145  0.09951  0.74899  1
 Zn  Zn1  1  0.00000  0.00000  0.00000  1
 Zn  Zn2  1  0.50000  0.00000  0.50000  1
