CIF file written using JARVIS-Tools package.
data_PbCl2O7
_symmetry_space_group_name_H-M  'C2/c'
_cell_length_a       7.0878
_cell_length_b       7.08779
_cell_length_c       8.58872
_cell_angle_alpha    55.8231
_cell_angle_beta     55.823
_cell_angle_gamma    62.061

_symmetry_Int_Tables_number  15
_chemical_formula_structural  PbCl2O7
_chemical_formula_sum  Pb2Cl4O4
_cell_volume  287.84417121450286
_cell_formula_units_Z  2
loop_
  _symmetry_equiv_pos_site_id
 _symmetry_equiv_pos_as_xyz
 1  'x, y, z'
loop_
 _atom_site_type_symbol
 _atom_site_label
 _atom_site_symmetry_multiplicity
 _atom_site_fract_x
 _atom_site_fract_y
 _atom_site_fract_z
 _atom_site_fract_occupancy
 Cl  Cl1  1  0.80581  0.80013  0.17994  1
 Cl  Cl2  1  0.80013  0.80581  0.67994  1
 Cl  Cl3  1  0.19419  0.19987  0.82006  1
 Cl  Cl4  1  0.19987  0.19419  0.32006  1
 O  O1  1  0.71184  0.57727  0.34828  1
 O  O2  1  0.73177  0.87815  0.01437  1
 O  O3  1  0.87815  0.73177  0.51437  1
 O  O4  1  0.26823  0.12185  0.98563  1
 O  O5  1  0.72682  0.27318  0.25000  1
 O  O6  1  0.06821  0.72467  0.09568  1
 O  O7  1  0.12185  0.26823  0.48563  1
 O  O8  1  0.27318  0.72682  0.75000  1
 O  O9  1  0.27533  0.93179  0.40432  1
 O  O10  1  0.72467  0.06821  0.59568  1
 O  O11  1  0.57727  0.71184  0.84828  1
 O  O12  1  0.28816  0.42273  0.65172  1
 O  O13  1  0.42273  0.28816  0.15172  1
 O  O14  1  0.93179  0.27533  0.90432  1
 Pb  Pb1  1  0.62201  0.37799  0.75000  1
 Pb  Pb2  1  0.37799  0.62201  0.25000  1
