CIF file written using JARVIS-Tools package.
data_OsCN
_symmetry_space_group_name_H-M  'R3m'
_cell_length_a       3.26953
_cell_length_b       3.26953
_cell_length_c       3.26953
_cell_angle_alpha    95.4559
_cell_angle_beta     95.4559
_cell_angle_gamma    95.456

_symmetry_Int_Tables_number  160
_chemical_formula_structural  OsCN
_chemical_formula_sum  OsCN
_cell_volume  34.44295767387148
_cell_formula_units_Z  1
loop_
  _symmetry_equiv_pos_site_id
 _symmetry_equiv_pos_as_xyz
 1  'x, y, z'
loop_
 _atom_site_type_symbol
 _atom_site_label
 _atom_site_symmetry_multiplicity
 _atom_site_fract_x
 _atom_site_fract_y
 _atom_site_fract_z
 _atom_site_fract_occupancy
 C  C1  1  0.60299  0.60299  0.60299  1
 N  N1  1  0.36336  0.36336  0.36336  1
 Os  Os1  1  0.97865  0.97865  0.97865  1
