CIF file written using JARVIS-Tools package.
data_Mn3As2O14
_symmetry_space_group_name_H-M  'P1'
_cell_length_a       5.32641
_cell_length_b       5.33282
_cell_length_c       9.49284
_cell_angle_alpha    98.1057
_cell_angle_beta     90.7919
_cell_angle_gamma    115.144

_symmetry_Int_Tables_number  1
_chemical_formula_structural  Mn3As2O14
_chemical_formula_sum  Mn3As2O4
_cell_volume  240.8338151433413
_cell_formula_units_Z  1
loop_
  _symmetry_equiv_pos_site_id
 _symmetry_equiv_pos_as_xyz
 1  'x, y, z'
loop_
 _atom_site_type_symbol
 _atom_site_label
 _atom_site_symmetry_multiplicity
 _atom_site_fract_x
 _atom_site_fract_y
 _atom_site_fract_z
 _atom_site_fract_occupancy
 As  As1  1  0.50439  0.10108  0.20304  1
 As  As2  1  0.48383  0.92236  0.79073  1
 Mn  Mn1  1  0.38649  0.21545  0.51516  1
 Mn  Mn2  1  0.99679  0.01394  0.99767  1
 Mn  Mn3  1  0.49698  0.51445  -0.00089  1
 O  O1  1  0.15562  0.91720  0.14939  1
 O  O2  1  0.83497  0.09768  0.83996  1
 O  O3  1  0.65464  0.90446  0.09394  1
 O  O4  1  0.34146  0.12661  0.90367  1
 O  O5  1  0.05438  0.86398  0.45031  1
 O  O6  1  0.65916  0.42978  0.15644  1
 O  O7  1  0.38692  0.89753  0.61709  1
 O  O8  1  0.33006  0.60021  0.84520  1
 O  O9  1  0.16203  0.37893  0.07451  1
 O  O10  1  0.82578  0.64318  0.92277  1
 O  O11  1  0.29026  0.36740  0.39488  1
 O  O12  1  0.08643  0.21713  0.59375  1
 O  O13  1  0.58372  0.08190  0.37483  1
 O  O14  1  0.63997  0.43882  0.62182  1
