CIF file written using JARVIS-Tools package.
data_OsCN
_symmetry_space_group_name_H-M  'P6mm'
_cell_length_a       2.80224
_cell_length_b       2.80224
_cell_length_c       5.09491
_cell_angle_alpha    90
_cell_angle_beta     90
_cell_angle_gamma    120

_symmetry_Int_Tables_number  183
_chemical_formula_structural  OsCN
_chemical_formula_sum  OsCN
_cell_volume  34.647976148879856
_cell_formula_units_Z  1
loop_
  _symmetry_equiv_pos_site_id
 _symmetry_equiv_pos_as_xyz
 1  'x, y, z'
loop_
 _atom_site_type_symbol
 _atom_site_label
 _atom_site_symmetry_multiplicity
 _atom_site_fract_x
 _atom_site_fract_y
 _atom_site_fract_z
 _atom_site_fract_occupancy
 C  C1  1  0.00000  0.00000  0.39820  1
 N  N1  1  0.00000  0.00000  0.63135  1
 Os  Os1  1  0.00000  0.00000  0.01646  1
