CIF file written using JARVIS-Tools package.
data_Li7Mn2Co3O12
_symmetry_space_group_name_H-M  'C2'
_cell_length_a       4.91744
_cell_length_b       4.91872
_cell_length_c       9.58186
_cell_angle_alpha    85.0498
_cell_angle_beta     99.958
_cell_angle_gamma    119.987

_symmetry_Int_Tables_number  5
_chemical_formula_structural  Li7Mn2Co3O12
_chemical_formula_sum  Li7Mn2Co3O2
_cell_volume  197.71277653784202
_cell_formula_units_Z  1
loop_
  _symmetry_equiv_pos_site_id
 _symmetry_equiv_pos_as_xyz
 1  'x, y, z'
loop_
 _atom_site_type_symbol
 _atom_site_label
 _atom_site_symmetry_multiplicity
 _atom_site_fract_x
 _atom_site_fract_y
 _atom_site_fract_z
 _atom_site_fract_occupancy
 Co  Co1  1  0.66663  0.33328  -0.00001  1
 Co  Co2  1  0.16645  0.33290  0.50000  1
 Co  Co3  1  0.33359  0.66719  0.00000  1
 Li  Li1  1  0.83358  0.66713  0.50000  1
 Li  Li2  1  0.23471  0.99073  0.73282  1
 Li  Li3  1  0.75595  0.99054  0.26718  1
 Li  Li4  1  0.07472  0.65850  0.26741  1
 Li  Li5  1  0.43313  0.34890  0.26757  1
 Li  Li6  1  0.58387  0.65868  0.73259  1
 Li  Li7  1  0.91589  0.34910  0.73243  1
 Mn  Mn1  1  0.00057  0.00117  0.00000  1
 Mn  Mn2  1  0.49995  -0.00010  0.50000  1
 O  O1  1  0.14854  0.01852  0.38478  1
 O  O2  1  0.29693  0.33323  0.89249  1
 O  O3  1  0.44301  0.66851  0.38524  1
 O  O4  1  0.52009  0.31267  0.61482  1
 O  O5  1  0.22556  0.66860  0.61476  1
 O  O6  1  0.87004  0.01861  0.61523  1
 O  O7  1  0.70368  0.66739  0.10944  1
 O  O8  1  0.03631  0.33335  0.10751  1
 O  O9  1  0.63076  0.00053  0.89284  1
 O  O10  1  0.79256  0.31259  0.38518  1
 O  O11  1  0.36983  0.00065  0.10716  1
 O  O12  1  0.96365  0.66732  0.89057  1
