CIF file written using JARVIS-Tools package.
data_InNF
_symmetry_space_group_name_H-M  'Amm2'
_cell_length_a       3.2868
_cell_length_b       5.42265
_cell_length_c       3.45885
_cell_angle_alpha    90
_cell_angle_beta     90
_cell_angle_gamma    72.4873

_symmetry_Int_Tables_number  38
_chemical_formula_structural  InNF
_chemical_formula_sum  InNF
_cell_volume  58.79038031552555
_cell_formula_units_Z  1
loop_
  _symmetry_equiv_pos_site_id
 _symmetry_equiv_pos_as_xyz
 1  'x, y, z'
loop_
 _atom_site_type_symbol
 _atom_site_label
 _atom_site_symmetry_multiplicity
 _atom_site_fract_x
 _atom_site_fract_y
 _atom_site_fract_z
 _atom_site_fract_occupancy
 F  F1  1  0.05458  -0.21907  0.00000  1
 In  In1  1  0.41385  0.06352  0.00000  1
 N  N1  1  -0.21496  0.32269  0.00000  1
