CIF file written using JARVIS-Tools package.
data_InNF3
_symmetry_space_group_name_H-M  'R3m'
_cell_length_a       4.34558
_cell_length_b       4.34558
_cell_length_c       4.34558
_cell_angle_alpha    108.493
_cell_angle_beta     108.493
_cell_angle_gamma    108.493

_symmetry_Int_Tables_number  160
_chemical_formula_structural  InNF3
_chemical_formula_sum  InNF3
_cell_volume  65.3583615264571
_cell_formula_units_Z  1
loop_
  _symmetry_equiv_pos_site_id
 _symmetry_equiv_pos_as_xyz
 1  'x, y, z'
loop_
 _atom_site_type_symbol
 _atom_site_label
 _atom_site_symmetry_multiplicity
 _atom_site_fract_x
 _atom_site_fract_y
 _atom_site_fract_z
 _atom_site_fract_occupancy
 F  F1  1  0.77509  0.24717  0.24717  1
 F  F2  1  0.24717  0.77509  0.24717  1
 F  F3  1  0.24717  0.24717  0.77509  1
 In  In1  1  0.33448  0.33448  0.33448  1
 N  N1  1  0.83188  0.83188  0.83188  1
