CIF file written using JARVIS-Tools package.
data_Li7Mn2Co3O12
_symmetry_space_group_name_H-M  'Pm'
_cell_length_a       2.83824
_cell_length_b       5.74089
_cell_length_c       12.4295
_cell_angle_alpha    77.5326
_cell_angle_beta     90
_cell_angle_gamma    90

_symmetry_Int_Tables_number  6
_chemical_formula_structural  Li7Mn2Co3O12
_chemical_formula_sum  Li7Mn2Co3O2
_cell_volume  197.75027106207247
_cell_formula_units_Z  1
loop_
  _symmetry_equiv_pos_site_id
 _symmetry_equiv_pos_as_xyz
 1  'x, y, z'
loop_
 _atom_site_type_symbol
 _atom_site_label
 _atom_site_symmetry_multiplicity
 _atom_site_fract_x
 _atom_site_fract_y
 _atom_site_fract_z
 _atom_site_fract_occupancy
 Co  Co1  1  0.00000  0.66866  0.66990  1
 Co  Co2  1  0.50000  0.16644  0.16773  1
 Co  Co3  1  0.50000  0.49948  0.50069  1
 Li  Li1  1  0.50000  0.82507  0.82965  1
 Li  Li2  1  0.50000  0.34568  0.82765  1
 Li  Li3  1  0.00000  0.14553  0.68249  1
 Li  Li4  1  0.50000  0.66973  0.16272  1
 Li  Li5  1  0.00000  0.83295  0.33473  1
 Li  Li6  1  0.50000  0.99183  0.50895  1
 Li  Li7  1  0.00000  0.51766  0.97957  1
 Mn  Mn1  1  0.00000  0.00111  0.99311  1
 Mn  Mn2  1  0.00000  0.33277  0.33481  1
 O  O1  1  0.00000  0.27100  0.49236  1
 O  O2  1  0.50000  0.44252  0.65644  1
 O  O3  1  0.00000  0.58719  0.82143  1
 O  O4  1  0.50000  0.89252  0.66582  1
 O  O5  1  0.00000  0.08280  0.84759  1
 O  O6  1  0.50000  0.56424  0.33716  1
 O  O7  1  0.00000  0.39301  0.17604  1
 O  O8  1  0.00000  0.72121  0.50583  1
 O  O9  1  0.00000  0.94360  0.16258  1
 O  O10  1  0.50000  0.10186  0.32985  1
 O  O11  1  0.50000  0.22868  0.01046  1
 O  O12  1  0.50000  0.77448  0.00245  1
