CIF file written using JARVIS-Tools package.
data_Ti2Co
_symmetry_space_group_name_H-M  'Fd-3m'
_cell_length_a       7.90073
_cell_length_b       7.90073
_cell_length_c       7.90073
_cell_angle_alpha    60
_cell_angle_beta     60
_cell_angle_gamma    60

_symmetry_Int_Tables_number  227
_chemical_formula_structural  Ti2Co
_chemical_formula_sum  Ti6Co8
_cell_volume  348.72785621734033
_cell_formula_units_Z  8
loop_
  _symmetry_equiv_pos_site_id
 _symmetry_equiv_pos_as_xyz
 1  'x, y, z'
loop_
 _atom_site_type_symbol
 _atom_site_label
 _atom_site_symmetry_multiplicity
 _atom_site_fract_x
 _atom_site_fract_y
 _atom_site_fract_z
 _atom_site_fract_occupancy
 Co  Co1  1  0.84342  0.84342  0.84342  1
 Co  Co2  1  0.46975  0.84342  0.84342  1
 Co  Co3  1  0.40658  0.40658  0.40658  1
 Co  Co4  1  0.40658  0.40658  0.78025  1
 Co  Co5  1  0.40658  0.78025  0.40658  1
 Co  Co6  1  0.78025  0.40658  0.40658  1
 Co  Co7  1  0.84342  0.84342  0.46975  1
 Co  Co8  1  0.84342  0.46975  0.84342  1
 Ti  Ti1  1  0.18635  0.81365  0.18635  1
 Ti  Ti2  1  0.62500  0.12500  0.62500  1
 Ti  Ti3  1  0.62500  0.62500  0.12500  1
 Ti  Ti4  1  0.62500  0.62500  0.62500  1
 Ti  Ti5  1  0.12500  0.62500  0.62500  1
 Ti  Ti6  1  0.81365  0.18635  0.81365  1
 Ti  Ti7  1  0.06365  0.06365  0.43635  1
 Ti  Ti8  1  0.18635  0.81365  0.81365  1
 Ti  Ti9  1  0.81365  0.18635  0.18635  1
 Ti  Ti10  1  0.43635  0.43635  0.06365  1
 Ti  Ti11  1  0.43635  0.06365  0.43635  1
 Ti  Ti12  1  0.06365  0.43635  0.06365  1
 Ti  Ti13  1  0.06365  0.43635  0.43635  1
 Ti  Ti14  1  0.43635  0.06365  0.06365  1
 Ti  Ti15  1  0.18635  0.18635  0.81365  1
 Ti  Ti16  1  0.81365  0.81365  0.18635  1
