CIF file written using JARVIS-Tools package.
data_Sm2Mn3Cu9P7
_symmetry_space_group_name_H-M  'Pm'
_cell_length_a       3.79163
_cell_length_b       9.58227
_cell_length_c       9.45287
_cell_angle_alpha    59.5927
_cell_angle_beta     90
_cell_angle_gamma    90

_symmetry_Int_Tables_number  6
_chemical_formula_structural  Sm2Mn3Cu9P7
_chemical_formula_sum  Sm2Mn3Cu9P7
_cell_volume  296.2043440277138
_cell_formula_units_Z  1
loop_
  _symmetry_equiv_pos_site_id
 _symmetry_equiv_pos_as_xyz
 1  'x, y, z'
loop_
 _atom_site_type_symbol
 _atom_site_label
 _atom_site_symmetry_multiplicity
 _atom_site_fract_x
 _atom_site_fract_y
 _atom_site_fract_z
 _atom_site_fract_occupancy
 Cu  Cu1  1  0.00000  0.04856  0.57237  1
 Cu  Cu2  1  0.50000  0.42190  0.61378  1
 Cu  Cu3  1  0.50000  0.95873  0.42549  1
 Cu  Cu4  1  0.50000  0.61230  0.96128  1
 Cu  Cu5  1  0.00000  0.88885  0.26603  1
 Cu  Cu6  1  0.00000  0.28614  0.83477  1
 Cu  Cu7  1  0.00000  0.38196  0.05006  1
 Cu  Cu8  1  0.00000  0.57034  0.38439  1
 Cu  Cu9  1  0.00000  0.83262  0.88229  1
 Mn  Mn1  1  0.50000  0.79017  0.11887  1
 Mn  Mn2  1  0.50000  0.13639  0.08183  1
 Mn  Mn3  1  0.50000  0.06502  0.81671  1
 P  P1  1  0.50000  0.88398  0.71224  1
 P  P2  1  0.00000  0.27818  0.59539  1
 P  P3  1  0.00000  0.12430  0.28492  1
 P  P4  1  0.00000  0.00785  -0.01730  1
 P  P5  1  0.50000  0.41638  0.87769  1
 P  P6  1  0.50000  0.71111  0.40799  1
 P  P7  1  0.00000  0.58553  0.13014  1
 Sm  Sm1  1  0.50000  0.32916  0.33734  1
 Sm  Sm2  1  0.00000  0.67053  0.66373  1
