CIF file written using JARVIS-Tools package.
data_TlAsO4
_symmetry_space_group_name_H-M  'Pbcn'
_cell_length_a       4.86818
_cell_length_b       4.99311
_cell_length_c       12.4552
_cell_angle_alpha    89.9988
_cell_angle_beta     90
_cell_angle_gamma    90

_symmetry_Int_Tables_number  60
_chemical_formula_structural  TlAsO4
_chemical_formula_sum  Tl4As4O6
_cell_volume  302.7530804140405
_cell_formula_units_Z  4
loop_
  _symmetry_equiv_pos_site_id
 _symmetry_equiv_pos_as_xyz
 1  'x, y, z'
loop_
 _atom_site_type_symbol
 _atom_site_label
 _atom_site_symmetry_multiplicity
 _atom_site_fract_x
 _atom_site_fract_y
 _atom_site_fract_z
 _atom_site_fract_occupancy
 As  As1  1  0.99980  0.75014  0.60575  1
 As  As2  1  0.49980  0.24986  0.89425  1
 As  As3  1  0.00020  0.24986  0.39425  1
 As  As4  1  0.50020  0.75014  0.10575  1
 O  O1  1  0.83124  0.46382  0.30632  1
 O  O2  1  0.24868  0.93725  0.53935  1
 O  O3  1  0.74868  0.06275  0.96065  1
 O  O4  1  0.75132  0.06275  0.46065  1
 O  O5  1  0.16937  0.03603  0.30635  1
 O  O6  1  0.75120  0.56280  0.53929  1
 O  O7  1  0.25120  0.43720  0.96071  1
 O  O8  1  0.25132  0.93725  0.03935  1
 O  O9  1  0.74880  0.56280  0.03929  1
 O  O10  1  0.66937  0.96397  0.19365  1
 O  O11  1  0.66876  0.46382  0.80632  1
 O  O12  1  0.24880  0.43720  0.46071  1
 O  O13  1  0.33124  0.53618  0.19368  1
 O  O14  1  0.83063  0.96397  0.69365  1
 O  O15  1  0.33063  0.03603  0.80635  1
 O  O16  1  0.16876  0.53618  0.69368  1
 Tl  Tl1  1  0.00019  0.25016  0.13262  1
 Tl  Tl2  1  0.50019  0.74984  0.36738  1
 Tl  Tl3  1  0.99981  0.74984  0.86738  1
 Tl  Tl4  1  0.49981  0.25016  0.63262  1
