CIF file written using JARVIS-Tools package.
data_Pr2MgIrO6
_symmetry_space_group_name_H-M  'P2_1/c'
_cell_length_a       5.72857
_cell_length_b       5.52519
_cell_length_c       9.64077
_cell_angle_alpha    54.9411
_cell_angle_beta     90
_cell_angle_gamma    90

_symmetry_Int_Tables_number  14
_chemical_formula_structural  Pr2MgIrO6
_chemical_formula_sum  Pr4Mg2Ir2O2
_cell_volume  249.77885528794985
_cell_formula_units_Z  2
loop_
  _symmetry_equiv_pos_site_id
 _symmetry_equiv_pos_as_xyz
 1  'x, y, z'
loop_
 _atom_site_type_symbol
 _atom_site_label
 _atom_site_symmetry_multiplicity
 _atom_site_fract_x
 _atom_site_fract_y
 _atom_site_fract_z
 _atom_site_fract_occupancy
 Ir  Ir1  1  0.00000  0.50000  0.50000  1
 Ir  Ir2  1  0.50000  0.50000  0.00000  1
 Mg  Mg1  1  0.50000  -0.00000  0.50000  1
 Mg  Mg2  1  0.00000  0.00000  0.00000  1
 O  O1  1  0.29306  0.25309  0.54776  1
 O  O2  1  0.79565  0.15613  0.54747  1
 O  O3  1  0.70694  0.74691  0.45224  1
 O  O4  1  0.20435  0.84387  0.45253  1
 O  O5  1  0.29565  0.84387  0.95253  1
 O  O6  1  0.70435  0.15613  0.04747  1
 O  O7  1  0.52381  0.34093  0.24904  1
 O  O8  1  0.79306  0.74691  0.95224  1
 O  O9  1  0.47619  0.65907  0.75096  1
 O  O10  1  0.97619  0.34093  0.74904  1
 O  O11  1  0.20694  0.25309  0.04776  1
 O  O12  1  0.02381  0.65907  0.25096  1
 Pr  Pr1  1  0.05680  0.76470  0.74938  1
 Pr  Pr2  1  0.44320  0.76470  0.24938  1
 Pr  Pr3  1  0.94320  0.23530  0.25062  1
 Pr  Pr4  1  0.55680  0.23530  0.75062  1
