CIF file written using JARVIS-Tools package.
data_TmNiB4
_symmetry_space_group_name_H-M  'Pbam'
_cell_length_a       3.40729
_cell_length_b       5.86136
_cell_length_c       11.3717
_cell_angle_alpha    90
_cell_angle_beta     90
_cell_angle_gamma    90

_symmetry_Int_Tables_number  55
_chemical_formula_structural  TmNiB4
_chemical_formula_sum  Tm4Ni4B6
_cell_volume  227.10899562278772
_cell_formula_units_Z  4
loop_
  _symmetry_equiv_pos_site_id
 _symmetry_equiv_pos_as_xyz
 1  'x, y, z'
loop_
 _atom_site_type_symbol
 _atom_site_label
 _atom_site_symmetry_multiplicity
 _atom_site_fract_x
 _atom_site_fract_y
 _atom_site_fract_z
 _atom_site_fract_occupancy
 B  B1  1  0.50000  0.38643  0.04763  1
 B  B2  1  0.50000  0.78555  0.18520  1
 B  B3  1  0.50000  0.21445  0.81480  1
 B  B4  1  0.50000  0.28555  0.31480  1
 B  B5  1  0.50000  0.47763  0.19184  1
 B  B6  1  0.50000  0.86300  0.03269  1
 B  B7  1  0.50000  0.13700  0.96731  1
 B  B8  1  0.50000  0.71445  0.68520  1
 B  B9  1  0.50000  0.63700  0.53269  1
 B  B10  1  0.50000  0.88643  0.45237  1
 B  B11  1  0.50000  0.11357  0.54763  1
 B  B12  1  0.50000  0.52237  0.80816  1
 B  B13  1  0.50000  0.61357  0.95237  1
 B  B14  1  0.50000  0.97763  0.30816  1
 B  B15  1  0.50000  0.02237  0.69184  1
 B  B16  1  0.50000  0.36300  0.46731  1
 Ni  Ni1  1  0.00000  0.86545  0.58895  1
 Ni  Ni2  1  0.00000  0.13455  0.41105  1
 Ni  Ni3  1  0.00000  0.36545  0.91105  1
 Ni  Ni4  1  0.00000  0.63455  0.08895  1
 Tm  Tm1  1  0.00000  0.87285  0.84972  1
 Tm  Tm2  1  0.00000  0.12715  0.15028  1
 Tm  Tm3  1  0.00000  0.37285  0.65028  1
 Tm  Tm4  1  0.00000  0.62715  0.34972  1
