CIF file written using JARVIS-Tools package.
data_NaAgO
_symmetry_space_group_name_H-M  'Cmcm'
_cell_length_a       5.5512
_cell_length_b       5.5512
_cell_length_c       5.47333
_cell_angle_alpha    90
_cell_angle_beta     90
_cell_angle_gamma    138.417

_symmetry_Int_Tables_number  63
_chemical_formula_structural  NaAgO
_chemical_formula_sum  Na2Ag2O2
_cell_volume  111.9444134676888
_cell_formula_units_Z  2
loop_
  _symmetry_equiv_pos_site_id
 _symmetry_equiv_pos_as_xyz
 1  'x, y, z'
loop_
 _atom_site_type_symbol
 _atom_site_label
 _atom_site_symmetry_multiplicity
 _atom_site_fract_x
 _atom_site_fract_y
 _atom_site_fract_z
 _atom_site_fract_occupancy
 Ag  Ag1  1  0.00000  0.00000  0.00000  1
 Ag  Ag2  1  0.00000  0.00000  0.50000  1
 Na  Na1  1  0.74149  0.25851  0.25000  1
 Na  Na2  1  0.25851  0.74149  0.75000  1
 O  O1  1  0.85001  0.15000  0.75000  1
 O  O2  1  0.15000  0.85001  0.25000  1
