CIF file written using JARVIS-Tools package.
data_Cu2SnSe3
_symmetry_space_group_name_H-M  'Cc'
_cell_length_a       7.04817
_cell_length_b       7.04817
_cell_length_c       13.5463
_cell_angle_alpha    85.2543
_cell_angle_beta     85.2544
_cell_angle_gamma    119.946

_symmetry_Int_Tables_number  9
_chemical_formula_structural  Cu2SnSe3
_chemical_formula_sum  Cu8Sn4Se2
_cell_volume  575.0689192831456
_cell_formula_units_Z  4
loop_
  _symmetry_equiv_pos_site_id
 _symmetry_equiv_pos_as_xyz
 1  'x, y, z'
loop_
 _atom_site_type_symbol
 _atom_site_label
 _atom_site_symmetry_multiplicity
 _atom_site_fract_x
 _atom_site_fract_y
 _atom_site_fract_z
 _atom_site_fract_occupancy
 Cu  Cu1  1  0.08556  0.91890  0.74238  1
 Cu  Cu2  1  0.91890  0.08556  0.24238  1
 Cu  Cu3  1  0.23215  0.73993  0.24135  1
 Cu  Cu4  1  0.73993  0.23215  0.74135  1
 Cu  Cu5  1  0.15279  0.31514  0.49201  1
 Cu  Cu6  1  0.31514  0.15279  0.99201  1
 Cu  Cu7  1  0.83814  0.65936  0.49086  1
 Cu  Cu8  1  0.65936  0.83814  0.99086  1
 Se  Se1  1  0.39439  0.19749  0.81154  1
 Se  Se2  1  0.32915  0.83215  0.06092  1
 Se  Se3  1  0.83215  0.32915  0.56092  1
 Se  Se4  1  0.04091  0.55731  0.79880  1
 Se  Se5  1  0.55731  0.04091  0.29880  1
 Se  Se6  1  0.61763  0.47737  0.04808  1
 Se  Se7  1  0.47737  0.61763  0.54808  1
 Se  Se8  1  0.91150  0.75169  0.31062  1
 Se  Se9  1  0.11452  0.96871  0.56167  1
 Se  Se10  1  0.75169  0.91150  0.81062  1
 Se  Se11  1  0.19749  0.39439  0.31154  1
 Se  Se12  1  0.96871  0.11452  0.06167  1
 Sn  Sn1  1  0.49311  0.00443  0.50010  1
 Sn  Sn2  1  0.57376  0.42752  0.24896  1
 Sn  Sn3  1  0.42752  0.57376  0.74896  1
 Sn  Sn4  1  0.00443  0.49311  0.00010  1
