CIF file written using JARVIS-Tools package.
data_Yb2Mn12P7
_symmetry_space_group_name_H-M  'P-6'
_cell_length_a       9.3564
_cell_length_b       9.3564
_cell_length_c       3.51162
_cell_angle_alpha    90
_cell_angle_beta     90
_cell_angle_gamma    120

_symmetry_Int_Tables_number  174
_chemical_formula_structural  Yb2Mn12P7
_chemical_formula_sum  Yb2Mn2P7
_cell_volume  266.2289819768799
_cell_formula_units_Z  1
loop_
  _symmetry_equiv_pos_site_id
 _symmetry_equiv_pos_as_xyz
 1  'x, y, z'
loop_
 _atom_site_type_symbol
 _atom_site_label
 _atom_site_symmetry_multiplicity
 _atom_site_fract_x
 _atom_site_fract_y
 _atom_site_fract_z
 _atom_site_fract_occupancy
 Mn  Mn1  1  0.42941  0.05112  0.00000  1
 Mn  Mn2  1  0.23139  0.10016  0.50000  1
 Mn  Mn3  1  0.89984  0.13123  0.50000  1
 Mn  Mn4  1  0.86877  0.76861  0.50000  1
 Mn  Mn5  1  0.56714  0.95116  0.50000  1
 Mn  Mn6  1  0.04884  0.61598  0.50000  1
 Mn  Mn7  1  0.38402  0.43286  0.50000  1
 Mn  Mn8  1  0.72465  0.88163  0.00000  1
 Mn  Mn9  1  0.11837  0.84302  0.00000  1
 Mn  Mn10  1  0.94888  0.37829  0.00000  1
 Mn  Mn11  1  0.62171  0.57059  0.00000  1
 Mn  Mn12  1  0.15698  0.27535  0.00000  1
 P  P1  1  0.29018  0.87583  0.50000  1
 P  P2  1  0.41226  0.28988  0.00000  1
 P  P3  1  0.71012  0.12237  0.00000  1
 P  P4  1  0.00000  0.00000  0.00000  1
 P  P5  1  0.12417  0.41434  0.50000  1
 P  P6  1  0.58566  0.70982  0.50000  1
 P  P7  1  0.87763  0.58774  0.00000  1
 Yb  Yb1  1  0.66667  0.33333  0.50000  1
 Yb  Yb2  1  0.33333  0.66667  0.00000  1
