CIF file written using JARVIS-Tools package.
data_BAsH4NO4F
_symmetry_space_group_name_H-M  'Cc'
_cell_length_a       4.65275
_cell_length_b       4.65275
_cell_length_c       12.6241
_cell_angle_alpha    89.9884
_cell_angle_beta     89.9884
_cell_angle_gamma    122.703

_symmetry_Int_Tables_number  9
_chemical_formula_structural  BAsH4NO4F
_chemical_formula_sum  B2As2H8N2O8F2
_cell_volume  229.96650115314165
_cell_formula_units_Z  2
loop_
  _symmetry_equiv_pos_site_id
 _symmetry_equiv_pos_as_xyz
 1  'x, y, z'
loop_
 _atom_site_type_symbol
 _atom_site_label
 _atom_site_symmetry_multiplicity
 _atom_site_fract_x
 _atom_site_fract_y
 _atom_site_fract_z
 _atom_site_fract_occupancy
 As  As1  1  0.90063  0.93414  0.77298  1
 As  As2  1  0.93414  0.90063  0.27298  1
 B  B1  1  0.57010  0.24928  0.68975  1
 B  B2  1  0.24928  0.57010  0.18975  1
 F  F1  1  0.72185  0.36677  0.58846  1
 F  F2  1  0.36677  0.72185  0.08846  1
 H  H1  1  0.42655  0.25401  0.95926  1
 H  H2  1  0.25401  0.42655  0.45926  1
 H  H3  1  0.63645  0.32775  0.07543  1
 H  H4  1  0.79802  0.26363  0.96334  1
 H  H5  1  0.62881  0.80185  0.47837  1
 H  H6  1  0.80185  0.62881  0.97837  1
 H  H7  1  0.32775  0.63645  0.57543  1
 H  H8  1  0.26363  0.79802  0.46334  1
 N  N1  1  0.66693  0.36884  0.99489  1
 N  N2  1  0.36884  0.66693  0.49489  1
 O  O1  1  0.50644  0.76683  0.27193  1
 O  O2  1  0.55343  0.93382  0.72128  1
 O  O3  1  0.93382  0.55343  0.22128  1
 O  O4  1  0.21541  0.16143  0.67801  1
 O  O5  1  0.16143  0.21541  0.17801  1
 O  O6  1  0.00439  0.06327  0.89902  1
 O  O7  1  0.06327  0.00439  0.39902  1
 O  O8  1  0.76683  0.50644  0.77193  1
