CIF file written using JARVIS-Tools package.
data_Dy8In3Co
_symmetry_space_group_name_H-M  'P6_3mc'
_cell_length_a       10.296
_cell_length_b       10.296
_cell_length_c       6.93459
_cell_angle_alpha    90
_cell_angle_beta     90
_cell_angle_gamma    120

_symmetry_Int_Tables_number  186
_chemical_formula_structural  Dy8In3Co
_chemical_formula_sum  Dy6In6Co2
_cell_volume  636.6286784223294
_cell_formula_units_Z  2
loop_
  _symmetry_equiv_pos_site_id
 _symmetry_equiv_pos_as_xyz
 1  'x, y, z'
loop_
 _atom_site_type_symbol
 _atom_site_label
 _atom_site_symmetry_multiplicity
 _atom_site_fract_x
 _atom_site_fract_y
 _atom_site_fract_z
 _atom_site_fract_occupancy
 Co  Co1  1  0.33333  0.66667  0.79033  1
 Co  Co2  1  0.66667  0.33333  0.29033  1
 Dy  Dy1  1  0.64415  0.82208  0.72034  1
 Dy  Dy2  1  0.92973  0.46486  0.51210  1
 Dy  Dy3  1  0.53514  0.46486  0.51210  1
 Dy  Dy4  1  0.46486  0.92973  0.01210  1
 Dy  Dy5  1  0.46486  0.53514  0.01210  1
 Dy  Dy6  1  0.17792  0.35585  0.72034  1
 Dy  Dy7  1  0.53514  0.07027  0.51210  1
 Dy  Dy8  1  0.17792  0.82208  0.72034  1
 Dy  Dy9  1  0.82208  0.64415  0.22034  1
 Dy  Dy10  1  0.35585  0.17792  0.22034  1
 Dy  Dy11  1  0.66667  0.33333  0.90335  1
 Dy  Dy12  1  0.33333  0.66667  0.40335  1
 Dy  Dy13  1  0.00000  0.00000  0.50142  1
 Dy  Dy14  1  0.00000  0.00000  0.00142  1
 Dy  Dy15  1  0.82208  0.17792  0.22034  1
 Dy  Dy16  1  0.07027  0.53514  0.01210  1
 In  In1  1  0.83690  0.67380  0.75989  1
 In  In2  1  0.32620  0.16310  0.75989  1
 In  In3  1  0.83690  0.16310  0.75989  1
 In  In4  1  0.16310  0.32620  0.25989  1
 In  In5  1  0.67380  0.83690  0.25989  1
 In  In6  1  0.16310  0.83690  0.25989  1
