CIF file written using JARVIS-Tools package.
data_InO3F
_symmetry_space_group_name_H-M  'R3m'
_cell_length_a       3.96692
_cell_length_b       3.96692
_cell_length_c       3.96692
_cell_angle_alpha    81.6416
_cell_angle_beta     81.6416
_cell_angle_gamma    81.6416

_symmetry_Int_Tables_number  160
_chemical_formula_structural  InO3F
_chemical_formula_sum  InO3F
_cell_volume  60.61215677527278
_cell_formula_units_Z  1
loop_
  _symmetry_equiv_pos_site_id
 _symmetry_equiv_pos_as_xyz
 1  'x, y, z'
loop_
 _atom_site_type_symbol
 _atom_site_label
 _atom_site_symmetry_multiplicity
 _atom_site_fract_x
 _atom_site_fract_y
 _atom_site_fract_z
 _atom_site_fract_occupancy
 F  F1  1  0.45923  0.45923  0.45923  1
 In  In1  1  0.00193  0.00193  0.00193  1
 O  O1  1  0.04357  0.62764  0.62764  1
 O  O2  1  0.62764  0.62764  0.04357  1
 O  O3  1  0.62764  0.04357  0.62764  1
