CIF file written using JARVIS-Tools package.
data_In2O3F
_symmetry_space_group_name_H-M  'Amm2'
_cell_length_a       3.35437
_cell_length_b       4.97134
_cell_length_c       4.97134
_cell_angle_alpha    87.0332
_cell_angle_beta     90
_cell_angle_gamma    90

_symmetry_Int_Tables_number  38
_chemical_formula_structural  In2O3F
_chemical_formula_sum  In2O3F
_cell_volume  82.78971062505566
_cell_formula_units_Z  1
loop_
  _symmetry_equiv_pos_site_id
 _symmetry_equiv_pos_as_xyz
 1  'x, y, z'
loop_
 _atom_site_type_symbol
 _atom_site_label
 _atom_site_symmetry_multiplicity
 _atom_site_fract_x
 _atom_site_fract_y
 _atom_site_fract_z
 _atom_site_fract_occupancy
 F  F1  1  0.50000  0.80381  0.80381  1
 In  In1  1  0.00000  0.01481  0.01481  1
 In  In2  1  0.50000  0.49096  0.49096  1
 O  O1  1  0.50000  0.19291  0.19291  1
 O  O2  1  0.00000  0.30377  0.69374  1
 O  O3  1  0.00000  0.69374  0.30377  1
