CIF file written using JARVIS-Tools package.
data_Tm4Ni2C5
_symmetry_space_group_name_H-M  'Pmm2'
_cell_length_a       3.55074
_cell_length_b       3.66347
_cell_length_c       11.4585
_cell_angle_alpha    90
_cell_angle_beta     90
_cell_angle_gamma    90

_symmetry_Int_Tables_number  25
_chemical_formula_structural  Tm4Ni2C5
_chemical_formula_sum  Tm4Ni2C5
_cell_volume  149.05209495074865
_cell_formula_units_Z  1
loop_
  _symmetry_equiv_pos_site_id
 _symmetry_equiv_pos_as_xyz
 1  'x, y, z'
loop_
 _atom_site_type_symbol
 _atom_site_label
 _atom_site_symmetry_multiplicity
 _atom_site_fract_x
 _atom_site_fract_y
 _atom_site_fract_z
 _atom_site_fract_occupancy
 C  C1  1  0.00000  0.00272  0.22717  1
 C  C2  1  0.00000  0.00272  0.77283  1
 C  C3  1  0.00000  0.19446  0.33152  1
 C  C4  1  0.00000  0.19446  0.66848  1
 C  C5  1  0.50000  0.49612  0.00000  1
 Ni  Ni1  1  0.00000  0.69492  0.38520  1
 Ni  Ni2  1  0.00000  0.69492  0.61480  1
 Tm  Tm1  1  0.50000  0.50600  0.20281  1
 Tm  Tm2  1  0.50000  0.50600  0.79719  1
 Tm  Tm3  1  0.50000  0.20729  0.50000  1
 Tm  Tm4  1  0.00000  0.00188  0.00000  1
