CIF file written using JARVIS-Tools package.
data_Li4MnGe2S7
_symmetry_space_group_name_H-M  'Cc'
_cell_length_a       9.11975
_cell_length_b       9.11976
_cell_length_c       10.1028
_cell_angle_alpha    86.1648
_cell_angle_beta     86.1648
_cell_angle_gamma    42.99

_symmetry_Int_Tables_number  9
_chemical_formula_structural  Li4MnGe2S7
_chemical_formula_sum  Li8Mn2Ge4S4
_cell_volume  571.461830549767
_cell_formula_units_Z  2
loop_
  _symmetry_equiv_pos_site_id
 _symmetry_equiv_pos_as_xyz
 1  'x, y, z'
loop_
 _atom_site_type_symbol
 _atom_site_label
 _atom_site_symmetry_multiplicity
 _atom_site_fract_x
 _atom_site_fract_y
 _atom_site_fract_z
 _atom_site_fract_occupancy
 Ge  Ge1  1  0.11775  0.44826  0.51882  1
 Ge  Ge2  1  0.44826  0.11775  0.01882  1
 Ge  Ge3  1  0.74160  0.39642  0.57934  1
 Ge  Ge4  1  0.39642  0.74160  0.07934  1
 Li  Li1  1  0.52970  0.89467  0.35808  1
 Li  Li2  1  0.89467  0.52970  0.85808  1
 Li  Li3  1  0.56866  0.27151  0.29300  1
 Li  Li4  1  0.97581  0.30597  0.21869  1
 Li  Li5  1  0.67968  0.02504  0.64018  1
 Li  Li6  1  0.02504  0.67968  0.14018  1
 Li  Li7  1  0.27151  0.56866  0.79300  1
 Li  Li8  1  0.30597  0.97581  0.71869  1
 Mn  Mn1  1  0.81884  0.16933  0.94000  1
 Mn  Mn2  1  0.16933  0.81884  0.44000  1
 S  S1  1  0.09896  0.39494  0.05253  1
 S  S2  1  0.98304  0.65244  0.69203  1
 S  S3  1  0.65244  0.98304  0.19203  1
 S  S4  1  0.79636  0.14345  0.48583  1
 S  S5  1  0.14345  0.79636  0.98583  1
 S  S6  1  0.92579  0.27165  0.76550  1
 S  S7  1  0.67820  0.39157  0.12909  1
 S  S8  1  0.39157  0.67820  0.62909  1
 S  S9  1  0.84652  0.50868  0.42685  1
 S  S10  1  0.50868  0.84652  0.92685  1
 S  S11  1  0.56813  0.19075  0.85310  1
 S  S12  1  0.39494  0.09896  0.55253  1
 S  S13  1  0.27165  0.92579  0.26550  1
 S  S14  1  0.19075  0.56813  0.35310  1
