CIF file written using JARVIS-Tools package.
data_Ta4Co2N
_symmetry_space_group_name_H-M  'Fd-3m'
_cell_length_a       8.18937
_cell_length_b       8.18937
_cell_length_c       8.18937
_cell_angle_alpha    60
_cell_angle_beta     60
_cell_angle_gamma    60

_symmetry_Int_Tables_number  227
_chemical_formula_structural  Ta4Co2N
_chemical_formula_sum  Ta6Co8N4
_cell_volume  388.36111735402545
_cell_formula_units_Z  4
loop_
  _symmetry_equiv_pos_site_id
 _symmetry_equiv_pos_as_xyz
 1  'x, y, z'
loop_
 _atom_site_type_symbol
 _atom_site_label
 _atom_site_symmetry_multiplicity
 _atom_site_fract_x
 _atom_site_fract_y
 _atom_site_fract_z
 _atom_site_fract_occupancy
 Co  Co1  1  0.41628  0.41628  0.41628  1
 Co  Co2  1  0.75116  0.41628  0.41628  1
 Co  Co3  1  0.41628  0.75116  0.41628  1
 Co  Co4  1  0.41628  0.41628  0.75116  1
 Co  Co5  1  0.49884  0.83372  0.83372  1
 Co  Co6  1  0.83372  0.49884  0.83372  1
 Co  Co7  1  0.83372  0.83372  0.49884  1
 Co  Co8  1  0.83372  0.83372  0.83372  1
 N  N1  1  0.12500  0.12500  0.12500  1
 N  N2  1  0.62500  0.12500  0.12500  1
 N  N3  1  0.12500  0.12500  0.62500  1
 N  N4  1  0.12500  0.62500  0.12500  1
 Ta  Ta1  1  0.18663  0.81337  0.18663  1
 Ta  Ta2  1  0.62500  0.12500  0.62500  1
 Ta  Ta3  1  0.12500  0.62500  0.62500  1
 Ta  Ta4  1  0.81337  0.81337  0.18663  1
 Ta  Ta5  1  0.18663  0.18663  0.81337  1
 Ta  Ta6  1  0.81337  0.18663  0.81337  1
 Ta  Ta7  1  0.06337  0.43663  0.06337  1
 Ta  Ta8  1  0.18663  0.81337  0.81337  1
 Ta  Ta9  1  0.81337  0.18663  0.18663  1
 Ta  Ta10  1  0.43663  0.43663  0.06337  1
 Ta  Ta11  1  0.06337  0.06337  0.43663  1
 Ta  Ta12  1  0.43663  0.06337  0.43663  1
 Ta  Ta13  1  0.06337  0.43663  0.43663  1
 Ta  Ta14  1  0.43663  0.06337  0.06337  1
 Ta  Ta15  1  0.62500  0.62500  0.62500  1
 Ta  Ta16  1  0.62500  0.62500  0.12500  1
