CIF file written using JARVIS-Tools package.
data_InGeCl3
_symmetry_space_group_name_H-M  'Cm'
_cell_length_a       5.31489
_cell_length_b       5.31489
_cell_length_c       5.31395
_cell_angle_alpha    92.8863
_cell_angle_beta     92.8863
_cell_angle_gamma    87.0458

_symmetry_Int_Tables_number  8
_chemical_formula_structural  InGeCl3
_chemical_formula_sum  InGeCl3
_cell_volume  149.5477159967977
_cell_formula_units_Z  1
loop_
  _symmetry_equiv_pos_site_id
 _symmetry_equiv_pos_as_xyz
 1  'x, y, z'
loop_
 _atom_site_type_symbol
 _atom_site_label
 _atom_site_symmetry_multiplicity
 _atom_site_fract_x
 _atom_site_fract_y
 _atom_site_fract_z
 _atom_site_fract_occupancy
 Cl  Cl1  1  0.02745  0.52162  0.46552  1
 Cl  Cl2  1  0.52144  0.52144  0.95932  1
 Cl  Cl3  1  0.52162  0.02745  0.46552  1
 Ge  Ge1  1  0.49055  0.49055  0.49596  1
 In  In1  1  0.93103  0.93103  0.05384  1
