CIF file written using JARVIS-Tools package.
data_TbGa4Co8
_symmetry_space_group_name_H-M  'I4/mmm'
_cell_length_a       6.38917
_cell_length_b       6.38917
_cell_length_c       6.38917
_cell_angle_alpha    98.5156
_cell_angle_beta     98.5156
_cell_angle_gamma    134.736

_symmetry_Int_Tables_number  139
_chemical_formula_structural  TbGa4Co8
_chemical_formula_sum  TbGa4Co8
_cell_volume  171.004628013556
_cell_formula_units_Z  1
loop_
  _symmetry_equiv_pos_site_id
 _symmetry_equiv_pos_as_xyz
 1  'x, y, z'
loop_
 _atom_site_type_symbol
 _atom_site_label
 _atom_site_symmetry_multiplicity
 _atom_site_fract_x
 _atom_site_fract_y
 _atom_site_fract_z
 _atom_site_fract_occupancy
 Co  Co1  1  0.27552  0.50000  0.77552  1
 Co  Co2  1  0.72448  0.50000  0.22448  1
 Co  Co3  1  0.50000  0.27552  0.77552  1
 Co  Co4  1  0.50000  0.72448  0.22448  1
 Co  Co5  1  0.50000  0.50000  0.50000  1
 Co  Co6  1  -0.00000  -0.00000  0.50000  1
 Co  Co7  1  0.00000  0.50000  -0.00000  1
 Co  Co8  1  0.50000  0.00000  -0.00000  1
 Ga  Ga1  1  0.34329  0.00000  0.34329  1
 Ga  Ga2  1  0.65671  -0.00000  0.65671  1
 Ga  Ga3  1  0.00000  0.34329  0.34329  1
 Ga  Ga4  1  -0.00000  0.65671  0.65671  1
 Tb  Tb1  1  0.00000  0.00000  0.00000  1
