CIF file written using JARVIS-Tools package.
data_TiMnSn4
_symmetry_space_group_name_H-M  'P6_222'
_cell_length_a       5.63799
_cell_length_b       5.63798
_cell_length_c       14.138
_cell_angle_alpha    90
_cell_angle_beta     90
_cell_angle_gamma    120

_symmetry_Int_Tables_number  180
_chemical_formula_structural  TiMnSn4
_chemical_formula_sum  Ti3Mn3Sn2
_cell_volume  389.19402301216394
_cell_formula_units_Z  3
loop_
  _symmetry_equiv_pos_site_id
 _symmetry_equiv_pos_as_xyz
 1  'x, y, z'
loop_
 _atom_site_type_symbol
 _atom_site_label
 _atom_site_symmetry_multiplicity
 _atom_site_fract_x
 _atom_site_fract_y
 _atom_site_fract_z
 _atom_site_fract_occupancy
 Mn  Mn1  1  0.00000  0.00000  0.50000  1
 Mn  Mn2  1  0.00000  0.00000  0.16667  1
 Mn  Mn3  1  0.00000  0.00000  0.83333  1
 Sn  Sn1  1  -0.00000  0.50000  0.55092  1
 Sn  Sn2  1  0.16701  0.33402  0.00000  1
 Sn  Sn3  1  0.66598  0.83299  0.66667  1
 Sn  Sn4  1  0.50000  0.00000  0.11575  1
 Sn  Sn5  1  0.33402  0.16701  0.66667  1
 Sn  Sn6  1  0.83299  0.66598  0.00000  1
 Sn  Sn7  1  0.83299  0.16701  0.33333  1
 Sn  Sn8  1  0.50000  0.50000  0.44908  1
 Sn  Sn9  1  0.16701  0.83299  0.33333  1
 Sn  Sn10  1  -0.00000  0.50000  0.78241  1
 Sn  Sn11  1  0.50000  0.50000  0.21759  1
 Sn  Sn12  1  0.50000  0.00000  0.88425  1
 Ti  Ti1  1  0.50000  0.50000  0.83333  1
 Ti  Ti2  1  -0.00000  0.50000  0.16667  1
 Ti  Ti3  1  0.50000  0.00000  0.50000  1
