CIF file written using JARVIS-Tools package.
data_InGeCl3
_symmetry_space_group_name_H-M  'R3m'
_cell_length_a       5.3066
_cell_length_b       5.3066
_cell_length_c       5.3066
_cell_angle_alpha    87.169
_cell_angle_beta     87.169
_cell_angle_gamma    87.1691

_symmetry_Int_Tables_number  160
_chemical_formula_structural  InGeCl3
_chemical_formula_sum  InGeCl3
_cell_volume  148.9041334568443
_cell_formula_units_Z  1
loop_
  _symmetry_equiv_pos_site_id
 _symmetry_equiv_pos_as_xyz
 1  'x, y, z'
loop_
 _atom_site_type_symbol
 _atom_site_label
 _atom_site_symmetry_multiplicity
 _atom_site_fract_x
 _atom_site_fract_y
 _atom_site_fract_z
 _atom_site_fract_occupancy
 Cl  Cl1  1  0.02622  0.52070  0.52070  1
 Cl  Cl2  1  0.52070  0.02622  0.52070  1
 Cl  Cl3  1  0.52070  0.52070  0.02622  1
 Ge  Ge1  1  0.49035  0.49035  0.49035  1
 In  In1  1  0.93213  0.93213  0.93213  1
