CIF file written using JARVIS-Tools package.
data_TlGeCl3
_symmetry_space_group_name_H-M  'R3m'
_cell_length_a       5.28578
_cell_length_b       5.28578
_cell_length_c       5.28578
_cell_angle_alpha    87.5805
_cell_angle_beta     87.5805
_cell_angle_gamma    87.5804

_symmetry_Int_Tables_number  160
_chemical_formula_structural  TlGeCl3
_chemical_formula_sum  TlGeCl3
_cell_volume  147.29727469715223
_cell_formula_units_Z  1
loop_
  _symmetry_equiv_pos_site_id
 _symmetry_equiv_pos_as_xyz
 1  'x, y, z'
loop_
 _atom_site_type_symbol
 _atom_site_label
 _atom_site_symmetry_multiplicity
 _atom_site_fract_x
 _atom_site_fract_y
 _atom_site_fract_z
 _atom_site_fract_occupancy
 Cl  Cl1  1  0.02250  0.51563  0.51563  1
 Cl  Cl2  1  0.51563  0.02250  0.51563  1
 Cl  Cl3  1  0.51563  0.51563  0.02250  1
 Ge  Ge1  1  0.48895  0.48895  0.48895  1
 Tl  Tl1  1  0.94739  0.94739  0.94739  1
