CIF file written using JARVIS-Tools package.
data_Er6Al7Cu16
_symmetry_space_group_name_H-M  'Fm-3m'
_cell_length_a       8.64114
_cell_length_b       8.64114
_cell_length_c       8.64114
_cell_angle_alpha    60
_cell_angle_beta     60
_cell_angle_gamma    60

_symmetry_Int_Tables_number  225
_chemical_formula_structural  Er6Al7Cu16
_chemical_formula_sum  Er6Al7Cu6
_cell_volume  456.2456506274731
_cell_formula_units_Z  1
loop_
  _symmetry_equiv_pos_site_id
 _symmetry_equiv_pos_as_xyz
 1  'x, y, z'
loop_
 _atom_site_type_symbol
 _atom_site_label
 _atom_site_symmetry_multiplicity
 _atom_site_fract_x
 _atom_site_fract_y
 _atom_site_fract_z
 _atom_site_fract_occupancy
 Al  Al1  1  0.50000  0.50000  -0.00000  1
 Al  Al2  1  0.00000  0.00000  0.00000  1
 Al  Al3  1  0.00000  0.00000  0.50000  1
 Al  Al4  1  0.50000  0.00000  0.50000  1
 Al  Al5  1  0.50000  0.00000  0.00000  1
 Al  Al6  1  -0.00000  0.50000  0.00000  1
 Al  Al7  1  -0.00000  0.50000  0.50000  1
 Cu  Cu1  1  0.87902  0.36294  0.87902  1
 Cu  Cu2  1  0.12098  0.63706  0.12098  1
 Cu  Cu3  1  0.32824  0.32824  0.01528  1
 Cu  Cu4  1  0.12098  0.12098  0.63706  1
 Cu  Cu5  1  0.87902  0.87902  0.87902  1
 Cu  Cu6  1  0.36294  0.87902  0.87902  1
 Cu  Cu7  1  0.01528  0.32824  0.32824  1
 Cu  Cu8  1  0.87902  0.87902  0.36294  1
 Cu  Cu9  1  0.12098  0.12098  0.12098  1
 Cu  Cu10  1  0.67176  0.67176  0.98472  1
 Cu  Cu11  1  0.32824  0.32824  0.32824  1
 Cu  Cu12  1  0.98472  0.67176  0.67176  1
 Cu  Cu13  1  0.67176  0.67176  0.67176  1
 Cu  Cu14  1  0.63706  0.12098  0.12098  1
 Cu  Cu15  1  0.32824  0.01528  0.32824  1
 Cu  Cu16  1  0.67176  0.98472  0.67176  1
 Er  Er1  1  0.28946  0.71054  0.71054  1
 Er  Er2  1  0.71054  0.28946  0.71054  1
 Er  Er3  1  0.28946  0.28946  0.71054  1
 Er  Er4  1  0.71054  0.28946  0.28946  1
 Er  Er5  1  0.28946  0.71054  0.28946  1
 Er  Er6  1  0.71054  0.71054  0.28946  1
