CIF file written using JARVIS-Tools package.
data_TlGeCl3
_symmetry_space_group_name_H-M  'Cm'
_cell_length_a       5.27524
_cell_length_b       5.27524
_cell_length_c       5.27377
_cell_angle_alpha    92.2042
_cell_angle_beta     92.2042
_cell_angle_gamma    87.7074

_symmetry_Int_Tables_number  8
_chemical_formula_structural  TlGeCl3
_chemical_formula_sum  TlGeCl3
_cell_volume  146.4331528278194
_cell_formula_units_Z  1
loop_
  _symmetry_equiv_pos_site_id
 _symmetry_equiv_pos_as_xyz
 1  'x, y, z'
loop_
 _atom_site_type_symbol
 _atom_site_label
 _atom_site_symmetry_multiplicity
 _atom_site_fract_x
 _atom_site_fract_y
 _atom_site_fract_z
 _atom_site_fract_occupancy
 Cl  Cl1  1  0.02189  0.51589  0.47149  1
 Cl  Cl2  1  0.51559  0.51559  0.96508  1
 Cl  Cl3  1  0.51589  0.02189  0.47149  1
 Ge  Ge1  1  0.48967  0.48967  0.49675  1
 Tl  Tl1  1  0.94905  0.94905  0.03535  1
