CIF file written using JARVIS-Tools package.
data_MoOF4
_symmetry_space_group_name_H-M  'I4'
_cell_length_a       4.88016
_cell_length_b       4.88016
_cell_length_c       4.88016
_cell_angle_alpha    100.005
_cell_angle_beta     100.005
_cell_angle_gamma    130.733

_symmetry_Int_Tables_number  79
_chemical_formula_structural  MoOF4
_chemical_formula_sum  MoOF4
_cell_volume  80.05582649808838
_cell_formula_units_Z  1
loop_
  _symmetry_equiv_pos_site_id
 _symmetry_equiv_pos_as_xyz
 1  'x, y, z'
loop_
 _atom_site_type_symbol
 _atom_site_label
 _atom_site_symmetry_multiplicity
 _atom_site_fract_x
 _atom_site_fract_y
 _atom_site_fract_z
 _atom_site_fract_occupancy
 F  F1  1  0.99079  0.35340  0.19194  1
 F  F2  1  0.79885  0.99079  0.63739  1
 F  F3  1  0.35340  0.16146  0.36261  1
 F  F4  1  0.16146  0.79885  0.80806  1
 Mo  Mo1  1  0.98532  0.98532  0.00000  1
 O  O1  1  0.57109  0.57109  0.00000  1
