CIF file written using JARVIS-Tools package.
data_Sc3Si3Pt
_symmetry_space_group_name_H-M  'Pnma'
_cell_length_a       4.03899
_cell_length_b       10.2532
_cell_length_c       11.7188
_cell_angle_alpha    90
_cell_angle_beta     90
_cell_angle_gamma    90

_symmetry_Int_Tables_number  62
_chemical_formula_structural  Sc3Si3Pt
_chemical_formula_sum  Sc2Si2Pt4
_cell_volume  485.3043861880026
_cell_formula_units_Z  4
loop_
  _symmetry_equiv_pos_site_id
 _symmetry_equiv_pos_as_xyz
 1  'x, y, z'
loop_
 _atom_site_type_symbol
 _atom_site_label
 _atom_site_symmetry_multiplicity
 _atom_site_fract_x
 _atom_site_fract_y
 _atom_site_fract_z
 _atom_site_fract_occupancy
 Pt  Pt1  1  0.75000  0.88650  0.82297  1
 Pt  Pt2  1  0.25000  0.38650  0.67703  1
 Pt  Pt3  1  0.75000  0.61350  0.32297  1
 Pt  Pt4  1  0.25000  0.11350  0.17703  1
 Sc  Sc1  1  0.25000  0.57985  0.09960  1
 Sc  Sc2  1  0.25000  0.62431  0.52039  1
 Sc  Sc3  1  0.75000  0.12431  0.97961  1
 Sc  Sc4  1  0.75000  0.37569  0.47961  1
 Sc  Sc5  1  0.25000  0.87569  0.02039  1
 Sc  Sc6  1  0.25000  0.65776  0.80106  1
 Sc  Sc7  1  0.75000  0.07985  0.40040  1
 Sc  Sc8  1  0.75000  0.42015  0.90040  1
 Sc  Sc9  1  0.75000  0.15776  0.69894  1
 Sc  Sc10  1  0.25000  0.84224  0.30106  1
 Sc  Sc11  1  0.75000  0.34224  0.19894  1
 Sc  Sc12  1  0.25000  0.92015  0.59960  1
 Si  Si1  1  0.25000  0.25219  0.34429  1
 Si  Si2  1  0.25000  0.01758  0.82453  1
 Si  Si3  1  0.75000  0.98242  0.17547  1
 Si  Si4  1  0.75000  0.51758  0.67547  1
 Si  Si5  1  0.25000  0.48242  0.32453  1
 Si  Si6  1  0.75000  0.75219  0.15571  1
 Si  Si7  1  0.25000  0.18627  0.54284  1
 Si  Si8  1  0.25000  0.31373  0.04284  1
 Si  Si9  1  0.75000  0.81373  0.45716  1
 Si  Si10  1  0.75000  0.74781  0.65571  1
 Si  Si11  1  0.25000  0.24781  0.84429  1
 Si  Si12  1  0.75000  0.68627  0.95716  1
