CIF file written using JARVIS-Tools package.
data_Ho4MgNi
_symmetry_space_group_name_H-M  'F-43m'
_cell_length_a       9.49942
_cell_length_b       9.49942
_cell_length_c       9.49942
_cell_angle_alpha    60
_cell_angle_beta     60
_cell_angle_gamma    60

_symmetry_Int_Tables_number  216
_chemical_formula_structural  Ho4MgNi
_chemical_formula_sum  Ho6Mg4Ni4
_cell_volume  606.1440906838764
_cell_formula_units_Z  4
loop_
  _symmetry_equiv_pos_site_id
 _symmetry_equiv_pos_as_xyz
 1  'x, y, z'
loop_
 _atom_site_type_symbol
 _atom_site_label
 _atom_site_symmetry_multiplicity
 _atom_site_fract_x
 _atom_site_fract_y
 _atom_site_fract_z
 _atom_site_fract_occupancy
 Ho  Ho1  1  0.34596  0.34596  0.34596  1
 Ho  Ho2  1  0.81278  0.18722  0.81278  1
 Ho  Ho3  1  0.34596  0.34596  0.96213  1
 Ho  Ho4  1  0.34596  0.96213  0.34596  1
 Ho  Ho5  1  0.96213  0.34596  0.34596  1
 Ho  Ho6  1  0.18722  0.81278  0.81278  1
 Ho  Ho7  1  0.18722  0.81278  0.18722  1
 Ho  Ho8  1  0.56582  0.93418  0.93417  1
 Ho  Ho9  1  0.81278  0.18722  0.18722  1
 Ho  Ho10  1  0.81278  0.81278  0.18722  1
 Ho  Ho11  1  0.93418  0.56583  0.56582  1
 Ho  Ho12  1  0.56583  0.93418  0.56582  1
 Ho  Ho13  1  0.93418  0.56583  0.93417  1
 Ho  Ho14  1  0.56582  0.56583  0.93417  1
 Ho  Ho15  1  0.93418  0.93418  0.56582  1
 Ho  Ho16  1  0.18722  0.18722  0.81278  1
 Mg  Mg1  1  0.57973  0.57973  0.57973  1
 Mg  Mg2  1  0.57973  0.57973  0.26082  1
 Mg  Mg3  1  0.57973  0.26082  0.57973  1
 Mg  Mg4  1  0.26082  0.57973  0.57973  1
 Ni  Ni1  1  0.14197  0.14197  0.57410  1
 Ni  Ni2  1  0.14197  0.57410  0.14197  1
 Ni  Ni3  1  0.14197  0.14197  0.14197  1
 Ni  Ni4  1  0.57410  0.14197  0.14197  1
