CIF file written using JARVIS-Tools package.
data_Y6CrGe2S14
_symmetry_space_group_name_H-M  'P3'
_cell_length_a       6.01042
_cell_length_b       9.65953
_cell_length_c       9.65941
_cell_angle_alpha    59.9996
_cell_angle_beta     89.9995
_cell_angle_gamma    89.9997

_symmetry_Int_Tables_number  143
_chemical_formula_structural  Y6CrGe2S14
_chemical_formula_sum  Y6CrGe2S4
_cell_volume  485.6684997636076
_cell_formula_units_Z  1
loop_
  _symmetry_equiv_pos_site_id
 _symmetry_equiv_pos_as_xyz
 1  'x, y, z'
loop_
 _atom_site_type_symbol
 _atom_site_label
 _atom_site_symmetry_multiplicity
 _atom_site_fract_x
 _atom_site_fract_y
 _atom_site_fract_z
 _atom_site_fract_occupancy
 Cr  Cr1  1  0.55716  -0.00000  0.00001  1
 Ge  Ge1  1  0.16702  0.33333  0.33334  1
 Ge  Ge2  1  0.65382  0.66666  0.66666  1
 S  S1  1  0.00608  0.48001  0.43062  1
 S  S2  1  0.31995  0.13944  0.75750  1
 S  S3  1  0.31994  0.75746  0.10307  1
 S  S4  1  0.49417  0.52343  0.56778  1
 S  S5  1  0.79106  0.85573  0.24624  1
 S  S6  1  0.79105  0.24627  0.89804  1
 S  S7  1  0.31993  0.10308  0.13945  1
 S  S8  1  0.54166  0.33333  0.33334  1
 S  S9  1  0.02714  0.66668  0.66665  1
 S  S10  1  0.49415  0.56780  0.90875  1
 S  S11  1  0.79105  0.89803  0.85572  1
 S  S12  1  0.00606  0.43059  0.08940  1
 S  S13  1  0.49417  0.90876  0.52342  1
 S  S14  1  0.00608  0.08939  0.48003  1
 Y  Y1  1  0.22750  0.85242  0.78803  1
 Y  Y2  1  0.22748  0.35954  0.85241  1
 Y  Y3  1  0.22752  0.78804  0.35952  1
 Y  Y4  1  0.73801  0.14794  0.21741  1
 Y  Y5  1  0.73801  0.63467  0.14794  1
 Y  Y6  1  0.73801  0.21741  0.63467  1
