CIF file written using JARVIS-Tools package.
data_Ti6Ga16Os7
_symmetry_space_group_name_H-M  'Fm-3m'
_cell_length_a       8.65326
_cell_length_b       8.65325
_cell_length_c       8.65325
_cell_angle_alpha    60
_cell_angle_beta     60
_cell_angle_gamma    60

_symmetry_Int_Tables_number  225
_chemical_formula_structural  Ti6Ga16Os7
_chemical_formula_sum  Ti6Ga6Os7
_cell_volume  458.16608364157037
_cell_formula_units_Z  1
loop_
  _symmetry_equiv_pos_site_id
 _symmetry_equiv_pos_as_xyz
 1  'x, y, z'
loop_
 _atom_site_type_symbol
 _atom_site_label
 _atom_site_symmetry_multiplicity
 _atom_site_fract_x
 _atom_site_fract_y
 _atom_site_fract_z
 _atom_site_fract_occupancy
 Ga  Ga1  1  0.55903  0.14699  0.14699  1
 Ga  Ga2  1  0.44097  0.85301  0.85301  1
 Ga  Ga3  1  0.85301  0.85301  0.85301  1
 Ga  Ga4  1  0.14699  0.14699  0.55903  1
 Ga  Ga5  1  0.14699  0.55903  0.14699  1
 Ga  Ga6  1  0.14699  0.14699  0.14699  1
 Ga  Ga7  1  0.62289  0.62289  0.13133  1
 Ga  Ga8  1  0.62289  0.13133  0.62289  1
 Ga  Ga9  1  0.13133  0.62289  0.62289  1
 Ga  Ga10  1  0.85301  0.44097  0.85301  1
 Ga  Ga11  1  0.62289  0.62289  0.62289  1
 Ga  Ga12  1  0.37711  0.86867  0.37711  1
 Ga  Ga13  1  0.86867  0.37711  0.37711  1
 Ga  Ga14  1  0.37711  0.37711  0.37711  1
 Ga  Ga15  1  0.37711  0.37711  0.86867  1
 Ga  Ga16  1  0.85301  0.85301  0.44097  1
 Os  Os1  1  -0.00000  0.50000  -0.00000  1
 Os  Os2  1  0.00000  0.00000  0.00000  1
 Os  Os3  1  0.00000  0.00000  0.50000  1
 Os  Os4  1  0.50000  0.00000  0.50000  1
 Os  Os5  1  -0.00000  0.50000  0.50000  1
 Os  Os6  1  0.50000  0.00000  -0.00000  1
 Os  Os7  1  0.50000  0.50000  -0.00000  1
 Ti  Ti1  1  0.21167  0.78833  0.78833  1
 Ti  Ti2  1  0.78833  0.21167  0.78833  1
 Ti  Ti3  1  0.21167  0.21167  0.78833  1
 Ti  Ti4  1  0.78833  0.21167  0.21167  1
 Ti  Ti5  1  0.21167  0.78833  0.21167  1
 Ti  Ti6  1  0.78833  0.78833  0.21167  1
