CIF file written using JARVIS-Tools package.
data_VPO5
_symmetry_space_group_name_H-M  'C2/c'
_cell_length_a       5.07614
_cell_length_b       5.07613
_cell_length_c       7.05598
_cell_angle_alpha    69.5093
_cell_angle_beta     69.5093
_cell_angle_gamma    88.854

_symmetry_Int_Tables_number  15
_chemical_formula_structural  VPO5
_chemical_formula_sum  V2P2O0
_cell_volume  158.44008575178333
_cell_formula_units_Z  2
loop_
  _symmetry_equiv_pos_site_id
 _symmetry_equiv_pos_as_xyz
 1  'x, y, z'
loop_
 _atom_site_type_symbol
 _atom_site_label
 _atom_site_symmetry_multiplicity
 _atom_site_fract_x
 _atom_site_fract_y
 _atom_site_fract_z
 _atom_site_fract_occupancy
 O  O1  1  0.75088  0.26377  0.06712  1
 O  O2  1  0.26377  0.75088  0.56712  1
 O  O3  1  0.70541  0.68734  0.65580  1
 O  O4  1  0.68734  0.70541  0.15580  1
 O  O5  1  0.24912  0.73623  0.93288  1
 O  O6  1  0.73623  0.24912  0.43288  1
 O  O7  1  0.29459  0.31266  0.34420  1
 O  O8  1  0.31266  0.29459  0.84420  1
 O  O9  1  0.93839  0.06161  0.75000  1
 O  O10  1  0.06161  0.93839  0.25000  1
 P  P1  1  0.61679  0.38321  0.25000  1
 P  P2  1  0.38321  0.61679  0.75000  1
 V  V1  1  0.00000  -0.00000  0.50000  1
 V  V2  1  0.00000  0.00000  0.00000  1
