CIF file written using JARVIS-Tools package.
data_U2Mn3Si
_symmetry_space_group_name_H-M  'P6_3/mmc'
_cell_length_a       5.07408
_cell_length_b       5.07409
_cell_length_c       7.87277
_cell_angle_alpha    90
_cell_angle_beta     90
_cell_angle_gamma    120

_symmetry_Int_Tables_number  194
_chemical_formula_structural  U2Mn3Si
_chemical_formula_sum  U4Mn6Si2
_cell_volume  175.53896918882393
_cell_formula_units_Z  2
loop_
  _symmetry_equiv_pos_site_id
 _symmetry_equiv_pos_as_xyz
 1  'x, y, z'
loop_
 _atom_site_type_symbol
 _atom_site_label
 _atom_site_symmetry_multiplicity
 _atom_site_fract_x
 _atom_site_fract_y
 _atom_site_fract_z
 _atom_site_fract_occupancy
 Mn  Mn1  1  0.82961  0.17039  0.75000  1
 Mn  Mn2  1  0.17039  0.82961  0.25000  1
 Mn  Mn3  1  0.34078  0.17039  0.75000  1
 Mn  Mn4  1  0.65922  0.82961  0.25000  1
 Mn  Mn5  1  0.82961  0.65922  0.75000  1
 Mn  Mn6  1  0.17039  0.34078  0.25000  1
 Si  Si1  1  0.00000  0.00000  0.00000  1
 Si  Si2  1  0.00000  0.00000  0.50000  1
 U  U1  1  0.66667  0.33333  0.41887  1
 U  U2  1  0.33333  0.66667  0.58113  1
 U  U3  1  0.33333  0.66667  0.91887  1
 U  U4  1  0.66667  0.33333  0.08113  1
