CIF file written using JARVIS-Tools package.
data_TcO2F
_symmetry_space_group_name_H-M  'Pmmm'
_cell_length_a       3.69786
_cell_length_b       3.71464
_cell_length_c       4.05147
_cell_angle_alpha    91.1219
_cell_angle_beta     90.24
_cell_angle_gamma    90.0907

_symmetry_Int_Tables_number  47
_chemical_formula_structural  TcO2F
_chemical_formula_sum  TcO2F
_cell_volume  55.640684744879046
_cell_formula_units_Z  1
loop_
  _symmetry_equiv_pos_site_id
 _symmetry_equiv_pos_as_xyz
 1  'x, y, z'
loop_
 _atom_site_type_symbol
 _atom_site_label
 _atom_site_symmetry_multiplicity
 _atom_site_fract_x
 _atom_site_fract_y
 _atom_site_fract_z
 _atom_site_fract_occupancy
 F  F1  1  0.06835  0.01037  0.45590  1
 O  O1  1  0.06842  0.51035  -0.04411  1
 O  O2  1  0.56841  0.01033  0.95590  1
 Tc  Tc1  1  0.06841  0.01034  -0.04411  1
