CIF file written using JARVIS-Tools package.
data_TiAlFeO5
_symmetry_space_group_name_H-M  'Cmc2_1'
_cell_length_a       5.07901
_cell_length_b       5.07901
_cell_length_c       9.59806
_cell_angle_alpha    90
_cell_angle_beta     90
_cell_angle_gamma    137.375

_symmetry_Int_Tables_number  36
_chemical_formula_structural  TiAlFeO5
_chemical_formula_sum  Ti2Al2Fe2O0
_cell_volume  167.67097849501448
_cell_formula_units_Z  2
loop_
  _symmetry_equiv_pos_site_id
 _symmetry_equiv_pos_as_xyz
 1  'x, y, z'
loop_
 _atom_site_type_symbol
 _atom_site_label
 _atom_site_symmetry_multiplicity
 _atom_site_fract_x
 _atom_site_fract_y
 _atom_site_fract_z
 _atom_site_fract_occupancy
 Al  Al1  1  0.80313  0.19687  0.25303  1
 Al  Al2  1  0.19687  0.80313  0.75303  1
 Fe  Fe1  1  0.85684  0.14316  0.93754  1
 Fe  Fe2  1  0.14316  0.85684  0.43754  1
 O  O1  1  0.68755  0.31245  0.42292  1
 O  O2  1  0.31684  0.68316  0.57791  1
 O  O3  1  0.68316  0.31684  0.07791  1
 O  O4  1  0.31245  0.68755  0.92292  1
 O  O5  1  0.95216  0.04784  0.37962  1
 O  O6  1  0.05823  0.94177  0.61714  1
 O  O7  1  0.94177  0.05823  0.11714  1
 O  O8  1  0.04784  0.95216  0.87962  1
 O  O9  1  0.24795  0.75205  0.25186  1
 O  O10  1  0.75205  0.24795  0.75186  1
 Ti  Ti1  1  0.12577  0.87423  0.06000  1
 Ti  Ti2  1  0.87423  0.12577  0.56000  1
