CIF file written using JARVIS-Tools package.
data_NClO
_symmetry_space_group_name_H-M  'Pm'
_cell_length_a       4.19338
_cell_length_b       4.97313
_cell_length_c       3.68913
_cell_angle_alpha    90
_cell_angle_beta     90
_cell_angle_gamma    81.4656

_symmetry_Int_Tables_number  6
_chemical_formula_structural  NClO
_chemical_formula_sum  NClO
_cell_volume  76.08192720471354
_cell_formula_units_Z  1
loop_
  _symmetry_equiv_pos_site_id
 _symmetry_equiv_pos_as_xyz
 1  'x, y, z'
loop_
 _atom_site_type_symbol
 _atom_site_label
 _atom_site_symmetry_multiplicity
 _atom_site_fract_x
 _atom_site_fract_y
 _atom_site_fract_z
 _atom_site_fract_occupancy
 Cl  Cl1  1  0.29655  0.10269  0.00000  1
 N  N1  1  0.10311  0.50197  0.00000  1
 O  O1  1  -0.17445  -0.45807  0.00000  1
