CIF file written using JARVIS-Tools package.
data_TmAl10Fe2
_symmetry_space_group_name_H-M  'Cmcm'
_cell_length_a       6.73059
_cell_length_b       6.73058
_cell_length_c       8.94997
_cell_angle_alpha    90
_cell_angle_beta     90
_cell_angle_gamma    97.112

_symmetry_Int_Tables_number  63
_chemical_formula_structural  TmAl10Fe2
_chemical_formula_sum  Tm2Al20Fe4
_cell_volume  402.32148403683817
_cell_formula_units_Z  2
loop_
  _symmetry_equiv_pos_site_id
 _symmetry_equiv_pos_as_xyz
 1  'x, y, z'
loop_
 _atom_site_type_symbol
 _atom_site_label
 _atom_site_symmetry_multiplicity
 _atom_site_fract_x
 _atom_site_fract_y
 _atom_site_fract_z
 _atom_site_fract_occupancy
 Al  Al1  1  0.84535  0.15465  0.09690  1
 Al  Al2  1  0.37313  0.62687  0.45425  1
 Al  Al3  1  0.37313  0.62687  0.04575  1
 Al  Al4  1  0.62687  0.37313  0.95425  1
 Al  Al5  1  0.22762  0.22762  0.50000  1
 Al  Al6  1  0.77238  0.77238  0.50000  1
 Al  Al7  1  0.77238  0.77238  0.00000  1
 Al  Al8  1  0.22762  0.22762  0.00000  1
 Al  Al9  1  0.15465  0.84535  0.59690  1
 Al  Al10  1  0.62687  0.37313  0.54575  1
 Al  Al11  1  0.84535  0.15465  0.40310  1
 Al  Al12  1  0.13829  0.41818  0.25000  1
 Al  Al13  1  0.41818  0.13829  0.75000  1
 Al  Al14  1  0.58182  0.86171  0.25000  1
 Al  Al15  1  0.21780  0.47805  0.75000  1
 Al  Al16  1  0.78220  0.52195  0.25000  1
 Al  Al17  1  0.52195  0.78220  0.75000  1
 Al  Al18  1  0.47805  0.21780  0.25000  1
 Al  Al19  1  0.86171  0.58182  0.75000  1
 Al  Al20  1  0.15465  0.84535  0.90310  1
 Fe  Fe1  1  0.50000  -0.00000  0.00000  1
 Fe  Fe2  1  -0.00000  0.50000  0.50000  1
 Fe  Fe3  1  0.50000  -0.00000  0.50000  1
 Fe  Fe4  1  -0.00000  0.50000  0.00000  1
 Tm  Tm1  1  0.12724  0.87276  0.25000  1
 Tm  Tm2  1  0.87276  0.12724  0.75000  1
