CIF file written using JARVIS-Tools package.
data_RbSbWO6
_symmetry_space_group_name_H-M  'Ima2'
_cell_length_a       7.32616
_cell_length_b       7.32616
_cell_length_c       7.32615
_cell_angle_alpha    120.712
_cell_angle_beta     118.659
_cell_angle_gamma    90.5546

_symmetry_Int_Tables_number  46
_chemical_formula_structural  RbSbWO6
_chemical_formula_sum  Rb2Sb2W2O2
_cell_volume  279.2406796872656
_cell_formula_units_Z  2
loop_
  _symmetry_equiv_pos_site_id
 _symmetry_equiv_pos_as_xyz
 1  'x, y, z'
loop_
 _atom_site_type_symbol
 _atom_site_label
 _atom_site_symmetry_multiplicity
 _atom_site_fract_x
 _atom_site_fract_y
 _atom_site_fract_z
 _atom_site_fract_occupancy
 O  O1  1  0.31751  0.06321  0.75430  1
 O  O2  1  0.07173  0.32782  0.24392  1
 O  O3  1  0.69109  0.93679  0.25430  1
 O  O4  1  0.31666  0.06382  0.12786  1
 O  O5  1  0.67665  0.30873  0.24341  1
 O  O6  1  0.06405  0.93618  0.25284  1
 O  O7  1  0.06405  0.31121  0.62786  1
 O  O8  1  0.91610  0.67218  0.74392  1
 O  O9  1  0.93467  0.69127  0.36792  1
 O  O10  1  0.93467  0.06675  0.74341  1
 O  O11  1  0.31666  0.68879  0.75284  1
 O  O12  1  0.67665  0.93325  0.86792  1
 Rb  Rb1  1  0.39486  0.61767  0.27718  1
 Rb  Rb2  1  0.65951  0.38233  0.77718  1
 Sb  Sb1  1  -0.00373  -0.00000  -0.00373  1
 Sb  Sb2  1  -0.00373  0.50000  0.49627  1
 W  W1  1  0.03311  0.00880  0.52430  1
 W  W2  1  0.51550  0.99120  0.02430  1
