CIF file written using JARVIS-Tools package.
data_PrSmCo17
_symmetry_space_group_name_H-M  'R3m'
_cell_length_a       6.29244
_cell_length_b       6.29244
_cell_length_c       6.29244
_cell_angle_alpha    83.1208
_cell_angle_beta     83.1208
_cell_angle_gamma    83.1208

_symmetry_Int_Tables_number  160
_chemical_formula_structural  PrSmCo17
_chemical_formula_sum  PrSmCo7
_cell_volume  244.164726602138
_cell_formula_units_Z  1
loop_
  _symmetry_equiv_pos_site_id
 _symmetry_equiv_pos_as_xyz
 1  'x, y, z'
loop_
 _atom_site_type_symbol
 _atom_site_label
 _atom_site_symmetry_multiplicity
 _atom_site_fract_x
 _atom_site_fract_y
 _atom_site_fract_z
 _atom_site_fract_occupancy
 Co  Co1  1  0.34295  0.85161  0.34295  1
 Co  Co2  1  0.28557  0.71419  0.00076  1
 Co  Co3  1  0.71419  0.00076  0.28557  1
 Co  Co4  1  0.00076  0.28557  0.71419  1
 Co  Co5  1  0.28557  0.00076  0.71419  1
 Co  Co6  1  0.00076  0.71419  0.28557  1
 Co  Co7  1  0.71419  0.28557  0.00076  1
 Co  Co8  1  0.34295  0.34295  0.85161  1
 Co  Co9  1  0.90431  0.90431  0.90431  1
 Co  Co10  1  0.09665  0.09665  0.09665  1
 Co  Co11  1  0.65582  0.65582  0.14846  1
 Co  Co12  1  0.65582  0.14846  0.65582  1
 Co  Co13  1  0.14846  0.65582  0.65582  1
 Co  Co14  1  0.00100  0.00100  0.49968  1
 Co  Co15  1  0.00100  0.49968  0.00100  1
 Co  Co16  1  0.49968  0.00100  0.00100  1
 Co  Co17  1  0.85161  0.34295  0.34295  1
 Pr  Pr1  1  0.65466  0.65466  0.65466  1
 Sm  Sm1  1  0.34406  0.34406  0.34406  1
