CIF file written using JARVIS-Tools package.
data_Th2Al4Si2Au3
_symmetry_space_group_name_H-M  'Cmmm'
_cell_length_a       12.0786
_cell_length_b       12.0786
_cell_length_c       4.29009
_cell_angle_alpha    90
_cell_angle_beta     90
_cell_angle_gamma    159.465

_symmetry_Int_Tables_number  65
_chemical_formula_structural  Th2Al4Si2Au3
_chemical_formula_sum  Th2Al4Si2Au3
_cell_volume  219.55522782223542
_cell_formula_units_Z  1
loop_
  _symmetry_equiv_pos_site_id
 _symmetry_equiv_pos_as_xyz
 1  'x, y, z'
loop_
 _atom_site_type_symbol
 _atom_site_label
 _atom_site_symmetry_multiplicity
 _atom_site_fract_x
 _atom_site_fract_y
 _atom_site_fract_z
 _atom_site_fract_occupancy
 Al  Al1  1  0.56290  0.43710  0.00000  1
 Al  Al2  1  0.43710  0.56290  0.00000  1
 Al  Al3  1  0.93757  0.06243  0.50000  1
 Al  Al4  1  0.06243  0.93757  0.50000  1
 Au  Au1  1  0.62282  0.37718  0.50000  1
 Au  Au2  1  0.37718  0.62282  0.50000  1
 Au  Au3  1  0.00000  0.00000  0.00000  1
 Si  Si1  1  0.72657  0.27343  0.50000  1
 Si  Si2  1  0.27343  0.72657  0.50000  1
 Th  Th1  1  0.82173  0.17827  0.00000  1
 Th  Th2  1  0.17827  0.82173  0.00000  1
