CIF file written using JARVIS-Tools package.
data_HfTiO4
_symmetry_space_group_name_H-M  'P2_12_12'
_cell_length_a       4.72409
_cell_length_b       5.1065
_cell_length_c       5.66204
_cell_angle_alpha    90
_cell_angle_beta     90
_cell_angle_gamma    90

_symmetry_Int_Tables_number  18
_chemical_formula_structural  HfTiO4
_chemical_formula_sum  Hf2Ti2O8
_cell_volume  136.5882729869216
_cell_formula_units_Z  2
loop_
  _symmetry_equiv_pos_site_id
 _symmetry_equiv_pos_as_xyz
 1  'x, y, z'
loop_
 _atom_site_type_symbol
 _atom_site_label
 _atom_site_symmetry_multiplicity
 _atom_site_fract_x
 _atom_site_fract_y
 _atom_site_fract_z
 _atom_site_fract_occupancy
 Hf  Hf1  1  0.00000  0.00000  0.08087  1
 Hf  Hf2  1  0.50000  0.50000  0.91913  1
 O  O1  1  0.72028  0.16145  0.85407  1
 O  O2  1  0.77972  0.66145  0.14593  1
 O  O3  1  0.22028  0.33855  0.14593  1
 O  O4  1  0.27972  0.83855  0.85407  1
 O  O5  1  0.26472  0.32516  0.62618  1
 O  O6  1  0.23528  0.82516  0.37382  1
 O  O7  1  0.76472  0.17484  0.37382  1
 O  O8  1  0.73528  0.67484  0.62618  1
 Ti  Ti1  1  0.00000  0.50000  0.42697  1
 Ti  Ti2  1  0.50000  0.00000  0.57303  1
