CIF file written using JARVIS-Tools package.
data_ZnCl2O
_symmetry_space_group_name_H-M  'Immm'
_cell_length_a       6.09771
_cell_length_b       6.09771
_cell_length_c       6.09771
_cell_angle_alpha    146.073
_cell_angle_beta     143.274
_cell_angle_gamma    50.8569

_symmetry_Int_Tables_number  71
_chemical_formula_structural  ZnCl2O
_chemical_formula_sum  ZnCl2O
_cell_volume  75.28197283737109
_cell_formula_units_Z  1
loop_
  _symmetry_equiv_pos_site_id
 _symmetry_equiv_pos_as_xyz
 1  'x, y, z'
loop_
 _atom_site_type_symbol
 _atom_site_label
 _atom_site_symmetry_multiplicity
 _atom_site_fract_x
 _atom_site_fract_y
 _atom_site_fract_z
 _atom_site_fract_occupancy
 Cl  Cl1  1  0.15704  0.65704  0.50000  1
 Cl  Cl2  1  0.84296  0.34296  0.50000  1
 O  O1  1  0.50000  0.00000  0.50000  1
 Zn  Zn1  1  0.00000  0.00000  0.00000  1
