CIF file written using JARVIS-Tools package.
data_Ta6Be15Ni8
_symmetry_space_group_name_H-M  'Fm-3m'
_cell_length_a       7.53324
_cell_length_b       7.53324
_cell_length_c       7.53324
_cell_angle_alpha    60
_cell_angle_beta     60
_cell_angle_gamma    60

_symmetry_Int_Tables_number  225
_chemical_formula_structural  Ta6Be15Ni8
_chemical_formula_sum  Ta6Be5Ni8
_cell_volume  302.29449807657346
_cell_formula_units_Z  1
loop_
  _symmetry_equiv_pos_site_id
 _symmetry_equiv_pos_as_xyz
 1  'x, y, z'
loop_
 _atom_site_type_symbol
 _atom_site_label
 _atom_site_symmetry_multiplicity
 _atom_site_fract_x
 _atom_site_fract_y
 _atom_site_fract_z
 _atom_site_fract_occupancy
 Be  Be1  1  0.67332  0.98003  0.67332  1
 Be  Be2  1  0.67332  0.67332  0.67332  1
 Be  Be3  1  0.32668  0.32668  0.01997  1
 Be  Be4  1  0.32668  0.01997  0.32668  1
 Be  Be5  1  0.67332  0.67332  0.98003  1
 Be  Be6  1  0.50000  0.00000  0.00000  1
 Be  Be7  1  0.98003  0.67332  0.67332  1
 Be  Be8  1  -0.00000  0.50000  0.50000  1
 Be  Be9  1  0.32668  0.32668  0.32668  1
 Be  Be10  1  -0.00000  0.50000  0.00000  1
 Be  Be11  1  0.00000  0.00000  0.50000  1
 Be  Be12  1  0.50000  0.50000  0.00000  1
 Be  Be13  1  0.00000  0.00000  0.00000  1
 Be  Be14  1  0.50000  0.00000  0.50000  1
 Be  Be15  1  0.01997  0.32668  0.32668  1
 Ni  Ni1  1  0.12285  0.12285  0.12285  1
 Ni  Ni2  1  0.63144  0.12285  0.12285  1
 Ni  Ni3  1  0.87715  0.87715  0.87715  1
 Ni  Ni4  1  0.12285  0.12285  0.63144  1
 Ni  Ni5  1  0.12285  0.63144  0.12285  1
 Ni  Ni6  1  0.87715  0.87715  0.36856  1
 Ni  Ni7  1  0.36856  0.87715  0.87715  1
 Ni  Ni8  1  0.87715  0.36856  0.87715  1
 Ta  Ta1  1  0.70220  0.70220  0.29780  1
 Ta  Ta2  1  0.29780  0.29780  0.70220  1
 Ta  Ta3  1  0.70220  0.29780  0.70220  1
 Ta  Ta4  1  0.29780  0.70220  0.29780  1
 Ta  Ta5  1  0.29780  0.70220  0.70220  1
 Ta  Ta6  1  0.70220  0.29780  0.29780  1
