CIF file written using JARVIS-Tools package.
data_CuBi12Ir3
_symmetry_space_group_name_H-M  'Pm'
_cell_length_a       4.25363
_cell_length_b       9.06315
_cell_length_c       11.6857
_cell_angle_alpha    90.678
_cell_angle_beta     90
_cell_angle_gamma    90

_symmetry_Int_Tables_number  6
_chemical_formula_structural  CuBi12Ir3
_chemical_formula_sum  CuBi2Ir3
_cell_volume  450.4661614027064
_cell_formula_units_Z  1
loop_
  _symmetry_equiv_pos_site_id
 _symmetry_equiv_pos_as_xyz
 1  'x, y, z'
loop_
 _atom_site_type_symbol
 _atom_site_label
 _atom_site_symmetry_multiplicity
 _atom_site_fract_x
 _atom_site_fract_y
 _atom_site_fract_z
 _atom_site_fract_occupancy
 Bi  Bi1  1  0.50000  0.79764  0.61078  1
 Bi  Bi2  1  0.50000  0.28453  0.88424  1
 Bi  Bi3  1  0.00000  0.21576  0.39375  1
 Bi  Bi4  1  0.00000  0.69147  0.12180  1
 Bi  Bi5  1  0.50000  0.89255  0.90841  1
 Bi  Bi6  1  0.50000  0.40070  0.60495  1
 Bi  Bi7  1  0.00000  0.10636  0.08585  1
 Bi  Bi8  1  0.00000  0.61243  0.39930  1
 Bi  Bi9  1  0.50000  0.91800  0.31833  1
 Bi  Bi10  1  0.50000  0.38899  0.17934  1
 Bi  Bi11  1  0.00000  0.09009  0.68296  1
 Bi  Bi12  1  0.00000  0.58435  0.81533  1
 Cu  Cu1  1  0.50000  0.59614  0.97846  1
 Ir  Ir1  1  0.50000  0.10807  0.52321  1
 Ir  Ir2  1  0.00000  0.40847  0.01564  1
 Ir  Ir3  1  0.00000  0.90445  0.47764  1
