CIF file written using JARVIS-Tools package.
data_Tb6Co2Sn
_symmetry_space_group_name_H-M  'Immm'
_cell_length_a       8.35338
_cell_length_b       8.35337
_cell_length_c       8.35338
_cell_angle_alpha    112.23
_cell_angle_beta     109.352
_cell_angle_gamma    106.877

_symmetry_Int_Tables_number  71
_chemical_formula_structural  Tb6Co2Sn
_chemical_formula_sum  Tb2Co4Sn2
_cell_volume  447.7257398414537
_cell_formula_units_Z  2
loop_
  _symmetry_equiv_pos_site_id
 _symmetry_equiv_pos_as_xyz
 1  'x, y, z'
loop_
 _atom_site_type_symbol
 _atom_site_label
 _atom_site_symmetry_multiplicity
 _atom_site_fract_x
 _atom_site_fract_y
 _atom_site_fract_z
 _atom_site_fract_occupancy
 Co  Co1  1  0.88692  0.38692  0.50000  1
 Co  Co2  1  0.11308  0.61308  0.50000  1
 Co  Co3  1  0.65717  -0.00000  0.65717  1
 Co  Co4  1  0.34283  -0.00000  0.34283  1
 Sn  Sn1  1  0.00000  0.00000  0.00000  1
 Sn  Sn2  1  0.50000  0.50000  -0.00000  1
 Tb  Tb1  1  0.81571  0.71497  0.53068  1
 Tb  Tb2  1  0.55723  0.76414  0.79309  1
 Tb  Tb3  1  0.02894  0.23586  0.79309  1
 Tb  Tb4  1  0.44277  0.23586  0.20691  1
 Tb  Tb5  1  0.32388  0.63712  0.31324  1
 Tb  Tb6  1  0.18429  0.71497  0.89926  1
 Tb  Tb7  1  0.81571  0.28503  0.10074  1
 Tb  Tb8  1  0.67612  0.36288  0.68676  1
 Tb  Tb9  1  0.32388  0.01064  0.68676  1
 Tb  Tb10  1  0.67612  0.98936  0.31324  1
 Tb  Tb11  1  0.18429  0.28503  0.46932  1
 Tb  Tb12  1  0.97106  0.76414  0.20691  1
