CIF file written using JARVIS-Tools package.
data_Tb5CuPb3
_symmetry_space_group_name_H-M  'P6_3/mcm'
_cell_length_a       9.2014
_cell_length_b       9.2014
_cell_length_c       6.64505
_cell_angle_alpha    90
_cell_angle_beta     90
_cell_angle_gamma    120

_symmetry_Int_Tables_number  193
_chemical_formula_structural  Tb5CuPb3
_chemical_formula_sum  Tb0Cu2Pb6
_cell_volume  487.2334111257775
_cell_formula_units_Z  2
loop_
  _symmetry_equiv_pos_site_id
 _symmetry_equiv_pos_as_xyz
 1  'x, y, z'
loop_
 _atom_site_type_symbol
 _atom_site_label
 _atom_site_symmetry_multiplicity
 _atom_site_fract_x
 _atom_site_fract_y
 _atom_site_fract_z
 _atom_site_fract_occupancy
 Cu  Cu1  1  0.00000  0.00000  0.50000  1
 Cu  Cu2  1  0.00000  0.00000  0.00000  1
 Pb  Pb1  1  0.61187  0.61187  0.75000  1
 Pb  Pb2  1  -0.00000  0.61187  0.25000  1
 Pb  Pb3  1  0.38813  0.00000  0.75000  1
 Pb  Pb4  1  0.61187  -0.00000  0.25000  1
 Pb  Pb5  1  0.38813  0.38813  0.25000  1
 Pb  Pb6  1  0.00000  0.38813  0.75000  1
 Tb  Tb1  1  0.74488  0.74488  0.25000  1
 Tb  Tb2  1  0.25512  -0.00000  0.25000  1
 Tb  Tb3  1  0.00000  0.74488  0.75000  1
 Tb  Tb4  1  0.66667  0.33333  0.50000  1
 Tb  Tb5  1  0.25512  0.25512  0.75000  1
 Tb  Tb6  1  0.33333  0.66667  0.00000  1
 Tb  Tb7  1  0.66667  0.33333  0.00000  1
 Tb  Tb8  1  0.33333  0.66667  0.50000  1
 Tb  Tb9  1  -0.00000  0.25512  0.25000  1
 Tb  Tb10  1  0.74488  0.00000  0.75000  1
