CIF file written using JARVIS-Tools package.
data_Sc2BeB2Ir5
_symmetry_space_group_name_H-M  'P4/mbm'
_cell_length_a       9.32042
_cell_length_b       9.32042
_cell_length_c       2.97749
_cell_angle_alpha    90
_cell_angle_beta     90
_cell_angle_gamma    90

_symmetry_Int_Tables_number  127
_chemical_formula_structural  Sc2BeB2Ir5
_chemical_formula_sum  Sc4Be2B4Ir0
_cell_volume  258.65467539127536
_cell_formula_units_Z  2
loop_
  _symmetry_equiv_pos_site_id
 _symmetry_equiv_pos_as_xyz
 1  'x, y, z'
loop_
 _atom_site_type_symbol
 _atom_site_label
 _atom_site_symmetry_multiplicity
 _atom_site_fract_x
 _atom_site_fract_y
 _atom_site_fract_z
 _atom_site_fract_occupancy
 B  B1  1  0.87142  0.37142  0.00000  1
 B  B2  1  0.62858  0.87142  0.00000  1
 B  B3  1  0.37142  0.12858  0.00000  1
 B  B4  1  0.12858  0.62858  0.00000  1
 Be  Be1  1  0.00000  0.00000  0.00000  1
 Be  Be2  1  0.50000  0.50000  0.00000  1
 Ir  Ir1  1  0.56727  0.70827  0.50000  1
 Ir  Ir2  1  0.29173  0.56727  0.50000  1
 Ir  Ir3  1  0.93273  0.20827  0.50000  1
 Ir  Ir4  1  0.70827  0.43273  0.50000  1
 Ir  Ir5  1  0.06727  0.79173  0.50000  1
 Ir  Ir6  1  0.79173  0.93273  0.50000  1
 Ir  Ir7  1  0.00000  0.50000  0.50000  1
 Ir  Ir8  1  0.50000  0.00000  0.50000  1
 Ir  Ir9  1  0.43273  0.29173  0.50000  1
 Ir  Ir10  1  0.20827  0.06727  0.50000  1
 Sc  Sc1  1  0.82358  0.67642  0.00000  1
 Sc  Sc2  1  0.17642  0.32358  0.00000  1
 Sc  Sc3  1  0.32358  0.82358  0.00000  1
 Sc  Sc4  1  0.67642  0.17642  0.00000  1
