CIF file written using JARVIS-Tools package.
data_TiOF4
_symmetry_space_group_name_H-M  'I4'
_cell_length_a       4.48774
_cell_length_b       4.48774
_cell_length_c       4.48774
_cell_angle_alpha    104.463
_cell_angle_beta     104.463
_cell_angle_gamma    120.032

_symmetry_Int_Tables_number  79
_chemical_formula_structural  TiOF4
_chemical_formula_sum  TiOF4
_cell_volume  67.77568985820848
_cell_formula_units_Z  1
loop_
  _symmetry_equiv_pos_site_id
 _symmetry_equiv_pos_as_xyz
 1  'x, y, z'
loop_
 _atom_site_type_symbol
 _atom_site_label
 _atom_site_symmetry_multiplicity
 _atom_site_fract_x
 _atom_site_fract_y
 _atom_site_fract_z
 _atom_site_fract_occupancy
 F  F1  1  0.91009  0.34341  0.16951  1
 F  F2  1  0.74058  0.91009  0.56668  1
 F  F3  1  0.34342  0.17391  0.43333  1
 F  F4  1  0.17391  0.74058  0.83049  1
 O  O1  1  0.57826  0.57826  0.00000  1
 Ti  Ti1  1  0.11465  0.11465  -0.00000  1
