CIF file written using JARVIS-Tools package.
data_FeSnPt
_symmetry_space_group_name_H-M  'P3m1'
_cell_length_a       4.01827
_cell_length_b       4.01826
_cell_length_c       15.9557
_cell_angle_alpha    90
_cell_angle_beta     90
_cell_angle_gamma    120

_symmetry_Int_Tables_number  156
_chemical_formula_structural  FeSnPt
_chemical_formula_sum  Fe4Sn4Pt4
_cell_volume  223.113088675519
_cell_formula_units_Z  4
loop_
  _symmetry_equiv_pos_site_id
 _symmetry_equiv_pos_as_xyz
 1  'x, y, z'
loop_
 _atom_site_type_symbol
 _atom_site_label
 _atom_site_symmetry_multiplicity
 _atom_site_fract_x
 _atom_site_fract_y
 _atom_site_fract_z
 _atom_site_fract_occupancy
 Fe  Fe1  1  0.66667  0.33333  0.24604  1
 Fe  Fe2  1  0.66667  0.33333  0.56230  1
 Fe  Fe3  1  0.00000  0.00000  0.17972  1
 Fe  Fe4  1  0.00000  0.00000  0.49860  1
 Pt  Pt1  1  0.00000  0.00000  0.83171  1
 Pt  Pt2  1  0.00000  0.00000  0.01263  1
 Pt  Pt3  1  0.00000  0.00000  0.33119  1
 Pt  Pt4  1  0.00000  0.00000  0.64948  1
 Sn  Sn1  1  0.66667  0.33333  0.92189  1
 Sn  Sn2  1  0.33333  0.66667  0.10837  1
 Sn  Sn3  1  0.33333  0.66667  0.42224  1
 Sn  Sn4  1  0.33333  0.66667  0.73582  1
