CIF file written using JARVIS-Tools package.
data_RbDyBr3
_symmetry_space_group_name_H-M  'Pnma'
_cell_length_a       7.50665
_cell_length_b       8.10121
_cell_length_c       11.1827
_cell_angle_alpha    90
_cell_angle_beta     90
_cell_angle_gamma    90

_symmetry_Int_Tables_number  62
_chemical_formula_structural  RbDyBr3
_chemical_formula_sum  Rb4Dy4Br2
_cell_volume  680.050025570997
_cell_formula_units_Z  4
loop_
  _symmetry_equiv_pos_site_id
 _symmetry_equiv_pos_as_xyz
 1  'x, y, z'
loop_
 _atom_site_type_symbol
 _atom_site_label
 _atom_site_symmetry_multiplicity
 _atom_site_fract_x
 _atom_site_fract_y
 _atom_site_fract_z
 _atom_site_fract_occupancy
 Br  Br1  1  0.55258  0.50657  0.25000  1
 Br  Br2  1  0.30457  0.20289  0.02766  1
 Br  Br3  1  0.05258  0.99343  0.75000  1
 Br  Br4  1  0.80457  0.29711  0.97234  1
 Br  Br5  1  0.69543  0.79711  0.52766  1
 Br  Br6  1  0.69543  0.79711  0.97234  1
 Br  Br7  1  0.30457  0.20289  0.47234  1
 Br  Br8  1  0.19543  0.70289  0.47234  1
 Br  Br9  1  0.80457  0.29711  0.52766  1
 Br  Br10  1  0.94742  0.00657  0.25000  1
 Br  Br11  1  0.44742  0.49343  0.75000  1
 Br  Br12  1  0.19543  0.70289  0.02766  1
 Dy  Dy1  1  0.50000  0.50000  0.50000  1
 Dy  Dy2  1  0.00000  0.00000  0.50000  1
 Dy  Dy3  1  0.50000  0.50000  0.00000  1
 Dy  Dy4  1  0.00000  0.00000  0.00000  1
 Rb  Rb1  1  0.47773  0.93708  0.25000  1
 Rb  Rb2  1  0.52227  0.06292  0.75000  1
 Rb  Rb3  1  0.97773  0.56292  0.75000  1
 Rb  Rb4  1  0.02227  0.43708  0.25000  1
