CIF file written using JARVIS-Tools package.
data_CaSmAl3O7
_symmetry_space_group_name_H-M  'Cmm2'
_cell_length_a       7.78166
_cell_length_b       7.78167
_cell_length_c       5.11173
_cell_angle_alpha    90
_cell_angle_beta     90
_cell_angle_gamma    90.6159

_symmetry_Int_Tables_number  35
_chemical_formula_structural  CaSmAl3O7
_chemical_formula_sum  Ca2Sm2Al6O4
_cell_volume  309.5192860696237
_cell_formula_units_Z  2
loop_
  _symmetry_equiv_pos_site_id
 _symmetry_equiv_pos_as_xyz
 1  'x, y, z'
loop_
 _atom_site_type_symbol
 _atom_site_label
 _atom_site_symmetry_multiplicity
 _atom_site_fract_x
 _atom_site_fract_y
 _atom_site_fract_z
 _atom_site_fract_occupancy
 Al  Al1  1  0.50000  0.00000  0.00376  1
 Al  Al2  1  -0.00000  0.50000  0.00376  1
 Al  Al3  1  0.85461  0.85461  0.04134  1
 Al  Al4  1  0.64340  0.35660  0.95682  1
 Al  Al5  1  0.14539  0.14539  0.04134  1
 Al  Al6  1  0.35660  0.64340  0.95682  1
 Ca  Ca1  1  0.65928  0.65928  0.48349  1
 Ca  Ca2  1  0.34072  0.34072  0.48349  1
 O  O1  1  0.86485  0.86485  0.69946  1
 O  O2  1  0.50000  0.50000  0.81319  1
 O  O3  1  0.13515  0.13515  0.69946  1
 O  O4  1  0.35290  0.64710  0.29766  1
 O  O5  1  0.66242  0.91250  0.20235  1
 O  O6  1  0.64710  0.35290  0.29766  1
 O  O7  1  0.33758  0.08750  0.20235  1
 O  O8  1  0.59598  0.15757  0.79998  1
 O  O9  1  0.40402  0.84243  0.79998  1
 O  O10  1  0.08750  0.33758  0.20235  1
 O  O11  1  0.84243  0.40402  0.79998  1
 O  O12  1  0.91250  0.66242  0.20235  1
 O  O13  1  0.15757  0.59598  0.79998  1
 O  O14  1  0.00000  0.00000  0.19156  1
 Sm  Sm1  1  0.16201  0.83799  0.51043  1
 Sm  Sm2  1  0.83799  0.16201  0.51043  1
