CIF file written using JARVIS-Tools package.
data_Ti2O3F
_symmetry_space_group_name_H-M  'Amm2'
_cell_length_a       2.97459
_cell_length_b       4.73087
_cell_length_c       4.73087
_cell_angle_alpha    86.7859
_cell_angle_beta     90
_cell_angle_gamma    90

_symmetry_Int_Tables_number  38
_chemical_formula_structural  Ti2O3F
_chemical_formula_sum  Ti2O3F
_cell_volume  66.46984908553753
_cell_formula_units_Z  1
loop_
  _symmetry_equiv_pos_site_id
 _symmetry_equiv_pos_as_xyz
 1  'x, y, z'
loop_
 _atom_site_type_symbol
 _atom_site_label
 _atom_site_symmetry_multiplicity
 _atom_site_fract_x
 _atom_site_fract_y
 _atom_site_fract_z
 _atom_site_fract_occupancy
 F  F1  1  0.50000  0.80070  0.80070  1
 O  O1  1  0.50000  0.20177  0.20177  1
 O  O2  1  0.00000  0.30112  0.69925  1
 O  O3  1  0.00000  0.69925  0.30112  1
 Ti  Ti1  1  0.00000  0.01729  0.01729  1
 Ti  Ti2  1  0.50000  0.47986  0.47986  1
