CIF file written using JARVIS-Tools package.
data_NdAl10Ru2
_symmetry_space_group_name_H-M  'Cmcm'
_cell_length_a       6.87691
_cell_length_b       6.87691
_cell_length_c       9.21624
_cell_angle_alpha    90
_cell_angle_beta     90
_cell_angle_gamma    96.7054

_symmetry_Int_Tables_number  63
_chemical_formula_structural  NdAl10Ru2
_chemical_formula_sum  Nd2Al20Ru4
_cell_volume  432.87148335078
_cell_formula_units_Z  2
loop_
  _symmetry_equiv_pos_site_id
 _symmetry_equiv_pos_as_xyz
 1  'x, y, z'
loop_
 _atom_site_type_symbol
 _atom_site_label
 _atom_site_symmetry_multiplicity
 _atom_site_fract_x
 _atom_site_fract_y
 _atom_site_fract_z
 _atom_site_fract_occupancy
 Al  Al1  1  0.84107  0.15893  0.10178  1
 Al  Al2  1  0.62325  0.37675  0.95259  1
 Al  Al3  1  0.22641  0.22641  0.50000  1
 Al  Al4  1  0.77359  0.77359  0.50000  1
 Al  Al5  1  0.77359  0.77359  0.00000  1
 Al  Al6  1  0.22641  0.22641  0.00000  1
 Al  Al7  1  0.62325  0.37675  0.54741  1
 Al  Al8  1  0.15893  0.84107  0.60178  1
 Al  Al9  1  0.84107  0.15893  0.39822  1
 Al  Al10  1  0.85630  0.58674  0.75000  1
 Al  Al11  1  0.14370  0.41326  0.25000  1
 Al  Al12  1  0.41326  0.14370  0.75000  1
 Al  Al13  1  0.58674  0.85630  0.25000  1
 Al  Al14  1  0.21900  0.48187  0.75000  1
 Al  Al15  1  0.78100  0.51813  0.25000  1
 Al  Al16  1  0.51813  0.78100  0.75000  1
 Al  Al17  1  0.48187  0.21900  0.25000  1
 Al  Al18  1  0.15893  0.84107  0.89822  1
 Al  Al19  1  0.37675  0.62325  0.04741  1
 Al  Al20  1  0.37675  0.62325  0.45259  1
 Nd  Nd1  1  0.87470  0.12530  0.75000  1
 Nd  Nd2  1  0.12530  0.87470  0.25000  1
 Ru  Ru1  1  0.50000  0.00000  0.00000  1
 Ru  Ru2  1  -0.00000  0.50000  0.50000  1
 Ru  Ru3  1  -0.00000  0.50000  0.00000  1
 Ru  Ru4  1  0.50000  0.00000  0.50000  1
