CIF file written using JARVIS-Tools package.
data_Nd4MgPt
_symmetry_space_group_name_H-M  'F-43m'
_cell_length_a       10.0432
_cell_length_b       10.0432
_cell_length_c       10.0432
_cell_angle_alpha    60
_cell_angle_beta     60
_cell_angle_gamma    60

_symmetry_Int_Tables_number  216
_chemical_formula_structural  Nd4MgPt
_chemical_formula_sum  Nd6Mg4Pt4
_cell_volume  716.3039796194776
_cell_formula_units_Z  4
loop_
  _symmetry_equiv_pos_site_id
 _symmetry_equiv_pos_as_xyz
 1  'x, y, z'
loop_
 _atom_site_type_symbol
 _atom_site_label
 _atom_site_symmetry_multiplicity
 _atom_site_fract_x
 _atom_site_fract_y
 _atom_site_fract_z
 _atom_site_fract_occupancy
 Mg  Mg1  1  0.26174  0.57942  0.57942  1
 Mg  Mg2  1  0.57942  0.26174  0.57942  1
 Mg  Mg3  1  0.57942  0.57942  0.26174  1
 Mg  Mg4  1  0.57942  0.57942  0.57942  1
 Nd  Nd1  1  0.34888  0.34888  0.34888  1
 Nd  Nd2  1  0.80930  0.19070  0.80930  1
 Nd  Nd3  1  0.34888  0.34888  0.95335  1
 Nd  Nd4  1  0.34888  0.95335  0.34888  1
 Nd  Nd5  1  0.95335  0.34888  0.34888  1
 Nd  Nd6  1  0.19070  0.80930  0.80930  1
 Nd  Nd7  1  0.80930  0.19070  0.19070  1
 Nd  Nd8  1  0.56535  0.93465  0.93465  1
 Nd  Nd9  1  0.19070  0.19070  0.80930  1
 Nd  Nd10  1  0.80930  0.80930  0.19070  1
 Nd  Nd11  1  0.93465  0.56535  0.56535  1
 Nd  Nd12  1  0.56535  0.93465  0.56535  1
 Nd  Nd13  1  0.93465  0.56535  0.93465  1
 Nd  Nd14  1  0.56535  0.56535  0.93465  1
 Nd  Nd15  1  0.93465  0.93465  0.56535  1
 Nd  Nd16  1  0.19070  0.80930  0.19070  1
 Pt  Pt1  1  0.14291  0.14291  0.57128  1
 Pt  Pt2  1  0.14291  0.57128  0.14291  1
 Pt  Pt3  1  0.14291  0.14291  0.14291  1
 Pt  Pt4  1  0.57128  0.14291  0.14291  1
