CIF file written using JARVIS-Tools package.
data_RbCu3S2
_symmetry_space_group_name_H-M  'P1'
_cell_length_a       4.19734
_cell_length_b       6.10133
_cell_length_c       6.22236
_cell_angle_alpha    96.5478
_cell_angle_beta     96.0104
_cell_angle_gamma    130.617

_symmetry_Int_Tables_number  1
_chemical_formula_structural  RbCu3S2
_chemical_formula_sum  RbCu3S2
_cell_volume  116.73779450440458
_cell_formula_units_Z  1
loop_
  _symmetry_equiv_pos_site_id
 _symmetry_equiv_pos_as_xyz
 1  'x, y, z'
loop_
 _atom_site_type_symbol
 _atom_site_label
 _atom_site_symmetry_multiplicity
 _atom_site_fract_x
 _atom_site_fract_y
 _atom_site_fract_z
 _atom_site_fract_occupancy
 Cu  Cu1  1  0.05252  0.40590  0.42101  1
 Cu  Cu2  1  0.13556  0.01813  0.37822  1
 Cu  Cu3  1  -0.11663  0.55855  0.05106  1
 Rb  Rb1  1  0.77963  -0.01781  -0.18409  1
 S  S1  1  0.67647  0.40410  0.64717  1
 S  S2  1  0.47246  0.63112  0.18663  1
