CIF file written using JARVIS-Tools package.
data_CaAl2Sb2
_symmetry_space_group_name_H-M  'R-3m'
_cell_length_a       9.20521
_cell_length_b       9.20521
_cell_length_c       9.20521
_cell_angle_alpha    27.2027
_cell_angle_beta     27.2027
_cell_angle_gamma    27.2028

_symmetry_Int_Tables_number  166
_chemical_formula_structural  CaAl2Sb2
_chemical_formula_sum  CaAl2Sb2
_cell_volume  143.81561391214694
_cell_formula_units_Z  1
loop_
  _symmetry_equiv_pos_site_id
 _symmetry_equiv_pos_as_xyz
 1  'x, y, z'
loop_
 _atom_site_type_symbol
 _atom_site_label
 _atom_site_symmetry_multiplicity
 _atom_site_fract_x
 _atom_site_fract_y
 _atom_site_fract_z
 _atom_site_fract_occupancy
 Al  Al1  1  0.45196  0.45196  0.45195  1
 Al  Al2  1  0.54805  0.54805  0.54804  1
 Ca  Ca1  1  0.00000  0.00000  0.00000  1
 Sb  Sb1  1  0.25698  0.25698  0.25698  1
 Sb  Sb2  1  0.74302  0.74302  0.74302  1
