CIF file written using JARVIS-Tools package.
data_Dy5Co2Bi
_symmetry_space_group_name_H-M  'I4/mcm'
_cell_length_a       8.66423
_cell_length_b       8.66423
_cell_length_c       8.66422
_cell_angle_alpha    128.225
_cell_angle_beta     128.225
_cell_angle_gamma    76.2616

_symmetry_Int_Tables_number  140
_chemical_formula_structural  Dy5Co2Bi
_chemical_formula_sum  Dy0Co4Bi2
_cell_volume  390.1138182888908
_cell_formula_units_Z  2
loop_
  _symmetry_equiv_pos_site_id
 _symmetry_equiv_pos_as_xyz
 1  'x, y, z'
loop_
 _atom_site_type_symbol
 _atom_site_label
 _atom_site_symmetry_multiplicity
 _atom_site_fract_x
 _atom_site_fract_y
 _atom_site_fract_z
 _atom_site_fract_occupancy
 Bi  Bi1  1  0.25000  0.25000  -0.00000  1
 Bi  Bi2  1  0.75000  0.75000  -0.00000  1
 Co  Co1  1  0.13978  0.63978  0.77956  1
 Co  Co2  1  0.86022  0.36022  0.22044  1
 Co  Co3  1  0.63978  0.86022  0.50000  1
 Co  Co4  1  0.36022  0.13978  0.50000  1
 Dy  Dy1  1  0.00000  0.00000  0.00000  1
 Dy  Dy2  1  0.50000  0.50000  -0.00000  1
 Dy  Dy3  1  0.78558  0.28558  0.81234  1
 Dy  Dy4  1  0.21442  0.71442  0.18766  1
 Dy  Dy5  1  0.47325  0.97325  0.18766  1
 Dy  Dy6  1  0.28558  0.47325  0.50000  1
 Dy  Dy7  1  0.02675  0.21442  0.50000  1
 Dy  Dy8  1  0.52675  0.02675  0.81234  1
 Dy  Dy9  1  0.71442  0.52675  0.50000  1
 Dy  Dy10  1  0.97325  0.78558  0.50000  1
