CIF file written using JARVIS-Tools package.
data_SnHF3
_symmetry_space_group_name_H-M  'R3m'
_cell_length_a       3.9955
_cell_length_b       3.9955
_cell_length_c       3.9955
_cell_angle_alpha    81.2406
_cell_angle_beta     81.2406
_cell_angle_gamma    81.2405

_symmetry_Int_Tables_number  160
_chemical_formula_structural  SnHF3
_chemical_formula_sum  SnHF3
_cell_volume  61.75841249308365
_cell_formula_units_Z  1
loop_
  _symmetry_equiv_pos_site_id
 _symmetry_equiv_pos_as_xyz
 1  'x, y, z'
loop_
 _atom_site_type_symbol
 _atom_site_label
 _atom_site_symmetry_multiplicity
 _atom_site_fract_x
 _atom_site_fract_y
 _atom_site_fract_z
 _atom_site_fract_occupancy
 F  F1  1  0.84455  0.84455  0.30068  1
 F  F2  1  0.84455  0.30068  0.84456  1
 F  F3  1  0.30068  0.84455  0.84456  1
 H  H1  1  0.98516  0.98516  0.98516  1
 Sn  Sn1  1  0.46481  0.46481  0.46481  1
