CIF file written using JARVIS-Tools package.
data_GaP2
_symmetry_space_group_name_H-M  'Pmmm'
_cell_length_a       5.47849
_cell_length_b       4.15164
_cell_length_c       2.55925
_cell_angle_alpha    90
_cell_angle_beta     90
_cell_angle_gamma    90

_symmetry_Int_Tables_number  47
_chemical_formula_structural  GaP2
_chemical_formula_sum  GaP2
_cell_volume  58.20947490997873
_cell_formula_units_Z  1
loop_
  _symmetry_equiv_pos_site_id
 _symmetry_equiv_pos_as_xyz
 1  'x, y, z'
loop_
 _atom_site_type_symbol
 _atom_site_label
 _atom_site_symmetry_multiplicity
 _atom_site_fract_x
 _atom_site_fract_y
 _atom_site_fract_z
 _atom_site_fract_occupancy
 Ga  Ga1  1  0.00000  0.42401  0.00000  1
 P  P1  1  0.30319  0.92399  0.00000  1
 P  P2  1  0.69681  0.92399  0.00000  1
