CIF file written using JARVIS-Tools package.
data_CaMgPO4F
_symmetry_space_group_name_H-M  'C2/c'
_cell_length_a       5.4717
_cell_length_b       5.4717
_cell_length_c       6.92936
_cell_angle_alpha    76.7766
_cell_angle_beta     76.7766
_cell_angle_gamma    106.735

_symmetry_Int_Tables_number  15
_chemical_formula_structural  CaMgPO4F
_chemical_formula_sum  Ca2Mg2P2O8F2
_cell_volume  183.4954384287922
_cell_formula_units_Z  2
loop_
  _symmetry_equiv_pos_site_id
 _symmetry_equiv_pos_as_xyz
 1  'x, y, z'
loop_
 _atom_site_type_symbol
 _atom_site_label
 _atom_site_symmetry_multiplicity
 _atom_site_fract_x
 _atom_site_fract_y
 _atom_site_fract_z
 _atom_site_fract_occupancy
 Ca  Ca1  1  0.66247  0.33753  0.75000  1
 Ca  Ca2  1  0.33753  0.66247  0.25000  1
 F  F1  1  0.91555  0.08445  0.75000  1
 F  F2  1  0.08445  0.91555  0.25000  1
 Mg  Mg1  1  -0.00000  0.00000  0.50000  1
 Mg  Mg2  1  0.00000  0.00000  0.00000  1
 O  O1  1  0.59844  0.74268  0.58823  1
 O  O2  1  0.40156  0.25732  0.41177  1
 O  O3  1  0.25732  0.40156  0.91177  1
 O  O4  1  0.74268  0.59844  0.08823  1
 O  O5  1  0.32883  0.89016  0.86883  1
 O  O6  1  0.67117  0.10984  0.13117  1
 O  O7  1  0.10984  0.67117  0.63117  1
 O  O8  1  0.89016  0.32883  0.36883  1
 P  P1  1  0.32074  0.67926  0.75000  1
 P  P2  1  0.67926  0.32074  0.25000  1
