CIF file written using JARVIS-Tools package.
data_Li4Ti3Fe3O12
_symmetry_space_group_name_H-M  'P-1'
_cell_length_a       5.64718
_cell_length_b       6.01667
_cell_length_c       6.40965
_cell_angle_alpha    104.995
_cell_angle_beta     98.8364
_cell_angle_gamma    90.7194

_symmetry_Int_Tables_number  2
_chemical_formula_structural  Li4Ti3Fe3O12
_chemical_formula_sum  Li4Ti3Fe3O2
_cell_volume  207.55683139818305
_cell_formula_units_Z  1
loop_
  _symmetry_equiv_pos_site_id
 _symmetry_equiv_pos_as_xyz
 1  'x, y, z'
loop_
 _atom_site_type_symbol
 _atom_site_label
 _atom_site_symmetry_multiplicity
 _atom_site_fract_x
 _atom_site_fract_y
 _atom_site_fract_z
 _atom_site_fract_occupancy
 Fe  Fe1  1  0.33142  0.83441  0.33401  1
 Fe  Fe2  1  0.00000  0.50000  0.00000  1
 Fe  Fe3  1  0.66858  0.16559  0.66599  1
 Li  Li1  1  0.50000  0.00000  -0.00000  1
 Li  Li2  1  0.20379  0.64980  0.64232  1
 Li  Li3  1  0.00000  0.00000  0.00000  1
 Li  Li4  1  0.79621  0.35020  0.35768  1
 O  O1  1  0.43090  0.40646  0.67820  1
 O  O2  1  0.92412  0.94398  0.66841  1
 O  O3  1  0.58307  0.07038  0.34436  1
 O  O4  1  0.25332  0.73552  0.01021  1
 O  O5  1  0.41693  0.92962  0.65564  1
 O  O6  1  0.75971  0.73332  0.02234  1
 O  O7  1  0.74668  0.26448  0.98979  1
 O  O8  1  0.24029  0.26668  0.97766  1
 O  O9  1  0.07212  0.60849  0.31597  1
 O  O10  1  0.07588  0.05602  0.33159  1
 O  O11  1  0.56910  0.59354  0.32180  1
 O  O12  1  0.92788  0.39151  0.68403  1
 Ti  Ti1  1  0.19063  0.16513  0.63910  1
 Ti  Ti2  1  0.50000  0.50000  -0.00000  1
 Ti  Ti3  1  0.80937  0.83487  0.36090  1
