CIF file written using JARVIS-Tools package.
data_Zr5AlNi4
_symmetry_space_group_name_H-M  'P-4n2'
_cell_length_a       7.16563
_cell_length_b       7.16563
_cell_length_c       6.62288
_cell_angle_alpha    90
_cell_angle_beta     90
_cell_angle_gamma    90

_symmetry_Int_Tables_number  118
_chemical_formula_structural  Zr5AlNi4
_chemical_formula_sum  Zr0Al2Ni8
_cell_volume  340.05964524539286
_cell_formula_units_Z  2
loop_
  _symmetry_equiv_pos_site_id
 _symmetry_equiv_pos_as_xyz
 1  'x, y, z'
loop_
 _atom_site_type_symbol
 _atom_site_label
 _atom_site_symmetry_multiplicity
 _atom_site_fract_x
 _atom_site_fract_y
 _atom_site_fract_z
 _atom_site_fract_occupancy
 Al  Al1  1  0.50000  0.50000  0.00000  1
 Al  Al2  1  0.00000  0.00000  0.50000  1
 Ni  Ni1  1  0.37447  0.12559  0.03052  1
 Ni  Ni2  1  0.87447  0.37441  0.53052  1
 Ni  Ni3  1  0.62559  0.87447  0.46948  1
 Ni  Ni4  1  0.37441  0.12553  0.46948  1
 Ni  Ni5  1  0.87441  0.37447  0.96948  1
 Ni  Ni6  1  0.12559  0.62553  0.96948  1
 Ni  Ni7  1  0.62553  0.87441  0.03052  1
 Ni  Ni8  1  0.12553  0.62559  0.53052  1
 Zr  Zr1  1  0.31666  0.81666  0.25000  1
 Zr  Zr2  1  0.18334  0.31666  0.75000  1
 Zr  Zr3  1  0.81666  0.68334  0.75000  1
 Zr  Zr4  1  0.50000  0.50000  0.50000  1
 Zr  Zr5  1  0.15869  0.34131  0.25000  1
 Zr  Zr6  1  0.65869  0.15869  0.75000  1
 Zr  Zr7  1  0.34131  0.84131  0.75000  1
 Zr  Zr8  1  0.00000  0.00000  0.00000  1
 Zr  Zr9  1  0.68334  0.18334  0.25000  1
 Zr  Zr10  1  0.84131  0.65869  0.25000  1
