CIF file written using JARVIS-Tools package.
data_TiCrCuS4
_symmetry_space_group_name_H-M  'Imma'
_cell_length_a       7.02032
_cell_length_b       7.02032
_cell_length_c       7.02032
_cell_angle_alpha    120.578
_cell_angle_beta     119.063
_cell_angle_gamma    90.3157

_symmetry_Int_Tables_number  74
_chemical_formula_structural  TiCrCuS4
_chemical_formula_sum  Ti2Cr2Cu2S8
_cell_volume  245.26139422077304
_cell_formula_units_Z  2
loop_
  _symmetry_equiv_pos_site_id
 _symmetry_equiv_pos_as_xyz
 1  'x, y, z'
loop_
 _atom_site_type_symbol
 _atom_site_label
 _atom_site_symmetry_multiplicity
 _atom_site_fract_x
 _atom_site_fract_y
 _atom_site_fract_z
 _atom_site_fract_occupancy
 Cr  Cr1  1  0.50000  0.50000  -0.00000  1
 Cr  Cr2  1  0.00000  0.50000  0.50000  1
 Cu  Cu1  1  0.62445  0.87445  0.75000  1
 Cu  Cu2  1  0.37555  0.12555  0.25000  1
 S  S1  1  0.23348  0.74331  0.49017  1
 S  S2  1  0.75314  0.74331  0.00983  1
 S  S3  1  0.75440  0.73734  0.48294  1
 S  S4  1  0.75440  0.27146  0.01706  1
 S  S5  1  0.76652  0.25669  0.50983  1
 S  S6  1  0.24686  0.25669  0.99017  1
 S  S7  1  0.24560  0.26266  0.51706  1
 S  S8  1  0.24560  0.72854  0.98294  1
 Ti  Ti1  1  0.00000  0.50000  0.00000  1
 Ti  Ti2  1  0.00000  0.00000  0.50000  1
