CIF file written using JARVIS-Tools package.
data_LaHO
_symmetry_space_group_name_H-M  'R-3m'
_cell_length_a       7.05208
_cell_length_b       7.05208
_cell_length_c       7.05208
_cell_angle_alpha    33.2727
_cell_angle_beta     33.2727
_cell_angle_gamma    33.2728

_symmetry_Int_Tables_number  166
_chemical_formula_structural  LaHO
_chemical_formula_sum  La2H2O2
_cell_volume  93.98175509213836
_cell_formula_units_Z  2
loop_
  _symmetry_equiv_pos_site_id
 _symmetry_equiv_pos_as_xyz
 1  'x, y, z'
loop_
 _atom_site_type_symbol
 _atom_site_label
 _atom_site_symmetry_multiplicity
 _atom_site_fract_x
 _atom_site_fract_y
 _atom_site_fract_z
 _atom_site_fract_occupancy
 H  H1  1  0.12984  0.12984  0.12984  1
 H  H2  1  0.87016  0.87016  0.87016  1
 La  La1  1  0.74317  0.74317  0.74317  1
 La  La2  1  0.25683  0.25683  0.25683  1
 O  O1  1  0.62033  0.62033  0.62033  1
 O  O2  1  0.37967  0.37967  0.37967  1
