CIF file written using JARVIS-Tools package.
data_Sr4PrMn5O15
_symmetry_space_group_name_H-M  'C2/m'
_cell_length_a       8.57984
_cell_length_b       8.57984
_cell_length_c       6.64193
_cell_angle_alpha    75.0311
_cell_angle_beta     75.0311
_cell_angle_gamma    36.8508

_symmetry_Int_Tables_number  12
_chemical_formula_structural  Sr4PrMn5O15
_chemical_formula_sum  Sr4PrMn5O5
_cell_volume  282.1549387031425
_cell_formula_units_Z  1
loop_
  _symmetry_equiv_pos_site_id
 _symmetry_equiv_pos_as_xyz
 1  'x, y, z'
loop_
 _atom_site_type_symbol
 _atom_site_label
 _atom_site_symmetry_multiplicity
 _atom_site_fract_x
 _atom_site_fract_y
 _atom_site_fract_z
 _atom_site_fract_occupancy
 Mn  Mn1  1  0.50000  0.50000  0.00000  1
 Mn  Mn2  1  0.29934  0.29934  0.80180  1
 Mn  Mn3  1  0.89906  0.89906  0.40060  1
 Mn  Mn4  1  0.10094  0.10094  0.59940  1
 Mn  Mn5  1  0.70066  0.70066  0.19820  1
 O  O1  1  0.20554  0.69724  0.20585  1
 O  O2  1  0.30276  0.79446  0.79415  1
 O  O3  1  0.10962  0.59984  0.59910  1
 O  O4  1  0.79446  0.30276  0.79415  1
 O  O5  1  0.89038  0.40016  0.40090  1
 O  O6  1  0.50000  -0.00000  0.00000  1
 O  O7  1  0.40173  0.40173  0.89502  1
 O  O8  1  0.69724  0.20554  0.20585  1
 O  O9  1  0.79871  0.79871  0.30593  1
 O  O10  1  0.40016  0.89038  0.40090  1
 O  O11  1  0.59827  0.59827  0.10498  1
 O  O12  1  0.20129  0.20129  0.69407  1
 O  O13  1  0.00000  0.50000  -0.00000  1
 O  O14  1  0.59984  0.10962  0.59910  1
 O  O15  1  0.00000  -0.00000  0.50000  1
 Pr  Pr1  1  0.50000  0.50000  0.50000  1
 Sr  Sr1  1  0.89989  0.89989  0.90121  1
 Sr  Sr2  1  0.29980  0.29980  0.29961  1
 Sr  Sr3  1  0.70020  0.70020  0.70039  1
 Sr  Sr4  1  0.10011  0.10011  0.09879  1
