CIF file written using JARVIS-Tools package.
data_Li4Co3CuO8
_symmetry_space_group_name_H-M  'R-3m'
_cell_length_a       5.78032
_cell_length_b       5.78032
_cell_length_c       5.78033
_cell_angle_alpha    59.252
_cell_angle_beta     59.252
_cell_angle_gamma    59.252

_symmetry_Int_Tables_number  166
_chemical_formula_structural  Li4Co3CuO8
_chemical_formula_sum  Li4Co3CuO8
_cell_volume  134.23937499369475
_cell_formula_units_Z  1
loop_
  _symmetry_equiv_pos_site_id
 _symmetry_equiv_pos_as_xyz
 1  'x, y, z'
loop_
 _atom_site_type_symbol
 _atom_site_label
 _atom_site_symmetry_multiplicity
 _atom_site_fract_x
 _atom_site_fract_y
 _atom_site_fract_z
 _atom_site_fract_occupancy
 Co  Co1  1  0.00000  0.50000  0.50000  1
 Co  Co2  1  0.50000  -0.00000  0.50000  1
 Co  Co3  1  0.50000  0.50000  0.00000  1
 Cu  Cu1  1  0.00000  0.00000  0.00000  1
 Li  Li1  1  -0.00000  0.00000  0.50000  1
 Li  Li2  1  -0.00000  0.50000  -0.00000  1
 Li  Li3  1  0.50000  -0.00000  0.00000  1
 Li  Li4  1  0.50000  0.50000  0.50000  1
 O  O1  1  0.75325  0.75325  0.26720  1
 O  O2  1  0.75325  0.26720  0.75325  1
 O  O3  1  0.26720  0.75325  0.75325  1
 O  O4  1  0.25833  0.25833  0.25833  1
 O  O5  1  0.74167  0.74167  0.74167  1
 O  O6  1  0.73280  0.24675  0.24675  1
 O  O7  1  0.24675  0.73280  0.24675  1
 O  O8  1  0.24675  0.24675  0.73280  1
