CIF file written using JARVIS-Tools package.
data_LiHN
_symmetry_space_group_name_H-M  'Pm'
_cell_length_a       3.83255
_cell_length_b       3.26048
_cell_length_c       2.385
_cell_angle_alpha    90
_cell_angle_beta     90
_cell_angle_gamma    53.6388

_symmetry_Int_Tables_number  6
_chemical_formula_structural  LiHN
_chemical_formula_sum  LiHN
_cell_volume  24.00007250544056
_cell_formula_units_Z  1
loop_
  _symmetry_equiv_pos_site_id
 _symmetry_equiv_pos_as_xyz
 1  'x, y, z'
loop_
 _atom_site_type_symbol
 _atom_site_label
 _atom_site_symmetry_multiplicity
 _atom_site_fract_x
 _atom_site_fract_y
 _atom_site_fract_z
 _atom_site_fract_occupancy
 H  H1  1  -0.18663  0.21908  0.00000  1
 Li  Li1  1  0.37939  0.09088  0.00000  1
 N  N1  1  0.01425  -0.17517  0.00000  1
