CIF file written using JARVIS-Tools package.
data_SbTeRh
_symmetry_space_group_name_H-M  'P2_13'
_cell_length_a       6.49676
_cell_length_b       6.49676
_cell_length_c       6.49676
_cell_angle_alpha    90
_cell_angle_beta     90
_cell_angle_gamma    90

_symmetry_Int_Tables_number  198
_chemical_formula_structural  SbTeRh
_chemical_formula_sum  Sb4Te4Rh4
_cell_volume  274.21451731246316
_cell_formula_units_Z  4
loop_
  _symmetry_equiv_pos_site_id
 _symmetry_equiv_pos_as_xyz
 1  'x, y, z'
loop_
 _atom_site_type_symbol
 _atom_site_label
 _atom_site_symmetry_multiplicity
 _atom_site_fract_x
 _atom_site_fract_y
 _atom_site_fract_z
 _atom_site_fract_occupancy
 Rh  Rh1  1  0.50231  0.49769  0.99769  1
 Rh  Rh2  1  0.49769  0.99769  0.50231  1
 Rh  Rh3  1  0.99769  0.50231  0.49769  1
 Rh  Rh4  1  0.00231  0.00231  0.00231  1
 Sb  Sb1  1  0.12753  0.87247  0.37247  1
 Sb  Sb2  1  0.87247  0.37247  0.12753  1
 Sb  Sb3  1  0.37247  0.12753  0.87247  1
 Sb  Sb4  1  0.62753  0.62753  0.62753  1
 Te  Te1  1  0.87300  0.12700  0.62700  1
 Te  Te2  1  0.12700  0.62700  0.87300  1
 Te  Te3  1  0.62700  0.87300  0.12700  1
 Te  Te4  1  0.37300  0.37300  0.37300  1
