CIF file written using JARVIS-Tools package.
data_SbTePt
_symmetry_space_group_name_H-M  'P2_13'
_cell_length_a       6.66299
_cell_length_b       6.66299
_cell_length_c       6.66299
_cell_angle_alpha    90
_cell_angle_beta     90
_cell_angle_gamma    90

_symmetry_Int_Tables_number  198
_chemical_formula_structural  SbTePt
_chemical_formula_sum  Sb4Te4Pt4
_cell_volume  295.80626889575774
_cell_formula_units_Z  4
loop_
  _symmetry_equiv_pos_site_id
 _symmetry_equiv_pos_as_xyz
 1  'x, y, z'
loop_
 _atom_site_type_symbol
 _atom_site_label
 _atom_site_symmetry_multiplicity
 _atom_site_fract_x
 _atom_site_fract_y
 _atom_site_fract_z
 _atom_site_fract_occupancy
 Pt  Pt1  1  0.50607  0.49393  0.99393  1
 Pt  Pt2  1  0.49393  0.99393  0.50607  1
 Pt  Pt3  1  0.99393  0.50607  0.49393  1
 Pt  Pt4  1  0.00607  0.00607  0.00607  1
 Sb  Sb1  1  0.12716  0.87284  0.37284  1
 Sb  Sb2  1  0.87284  0.37284  0.12716  1
 Sb  Sb3  1  0.37284  0.12716  0.87284  1
 Sb  Sb4  1  0.62716  0.62716  0.62716  1
 Te  Te1  1  0.87269  0.12731  0.62731  1
 Te  Te2  1  0.12731  0.62731  0.87269  1
 Te  Te3  1  0.62731  0.87269  0.12731  1
 Te  Te4  1  0.37269  0.37269  0.37269  1
