CIF file written using JARVIS-Tools package.
data_Li3V4FeO8
_symmetry_space_group_name_H-M  'C2/m'
_cell_length_a       5.83639
_cell_length_b       5.83639
_cell_length_c       5.8886
_cell_angle_alpha    59.4789
_cell_angle_beta     59.479
_cell_angle_gamma    59.4205

_symmetry_Int_Tables_number  12
_chemical_formula_structural  Li3V4FeO8
_chemical_formula_sum  Li3V4FeO8
_cell_volume  140.09148860990229
_cell_formula_units_Z  1
loop_
  _symmetry_equiv_pos_site_id
 _symmetry_equiv_pos_as_xyz
 1  'x, y, z'
loop_
 _atom_site_type_symbol
 _atom_site_label
 _atom_site_symmetry_multiplicity
 _atom_site_fract_x
 _atom_site_fract_y
 _atom_site_fract_z
 _atom_site_fract_occupancy
 Fe  Fe1  1  0.50000  0.50000  -0.00000  1
 Li  Li1  1  -0.00000  0.50000  0.00000  1
 Li  Li2  1  0.50000  -0.00000  0.00000  1
 Li  Li3  1  -0.00000  -0.00000  0.50000  1
 O  O1  1  0.74539  0.74539  0.74285  1
 O  O2  1  0.25421  0.74640  0.24325  1
 O  O3  1  0.74640  0.25421  0.24325  1
 O  O4  1  0.25461  0.25461  0.25715  1
 O  O5  1  0.24787  0.24787  0.75176  1
 O  O6  1  0.74579  0.25360  0.75675  1
 O  O7  1  0.25360  0.74579  0.75675  1
 O  O8  1  0.75213  0.75213  0.24824  1
 V  V1  1  0.50000  0.50000  0.50000  1
 V  V2  1  0.00000  0.00000  0.00000  1
 V  V3  1  0.50000  -0.00000  0.50000  1
 V  V4  1  -0.00000  0.50000  0.50000  1
