CIF file written using JARVIS-Tools package.
data_Nd2Co17N2
_symmetry_space_group_name_H-M  'C2/m'
_cell_length_a       6.35872
_cell_length_b       6.35873
_cell_length_c       6.41149
_cell_angle_alpha    83.6875
_cell_angle_beta     83.6875
_cell_angle_gamma    83.9381

_symmetry_Int_Tables_number  12
_chemical_formula_structural  Nd2Co17N2
_chemical_formula_sum  Nd2Co7N2
_cell_volume  254.95444772266205
_cell_formula_units_Z  1
loop_
  _symmetry_equiv_pos_site_id
 _symmetry_equiv_pos_as_xyz
 1  'x, y, z'
loop_
 _atom_site_type_symbol
 _atom_site_label
 _atom_site_symmetry_multiplicity
 _atom_site_fract_x
 _atom_site_fract_y
 _atom_site_fract_z
 _atom_site_fract_occupancy
 Co  Co1  1  0.71892  0.28108  -0.00000  1
 Co  Co2  1  0.34272  0.85869  0.33756  1
 Co  Co3  1  0.65316  0.65316  0.13057  1
 Co  Co4  1  0.14131  0.65728  0.66244  1
 Co  Co5  1  0.65728  0.14131  0.66244  1
 Co  Co6  1  0.09610  0.09610  0.09301  1
 Co  Co7  1  0.00087  0.72081  0.27773  1
 Co  Co8  1  0.85869  0.34272  0.33756  1
 Co  Co9  1  0.27919  -0.00087  0.72227  1
 Co  Co10  1  0.72081  0.00087  0.27773  1
 Co  Co11  1  0.28108  0.71892  -0.00000  1
 Co  Co12  1  0.00000  0.00000  0.50000  1
 Co  Co13  1  0.50000  0.00000  -0.00000  1
 Co  Co14  1  0.00000  0.50000  0.00000  1
 Co  Co15  1  0.90390  0.90390  0.90699  1
 Co  Co16  1  -0.00087  0.27919  0.72227  1
 Co  Co17  1  0.34684  0.34684  0.86943  1
 N  N1  1  0.50000  0.00000  0.50000  1
 N  N2  1  0.00000  0.50000  0.50000  1
 Nd  Nd1  1  0.34835  0.34835  0.34105  1
 Nd  Nd2  1  0.65165  0.65165  0.65895  1
