CIF file written using JARVIS-Tools package.
data_Nb4CuSe8
_symmetry_space_group_name_H-M  'C2/m'
_cell_length_a       13.2556
_cell_length_b       13.2556
_cell_length_c       6.07796
_cell_angle_alpha    76.9544
_cell_angle_beta     76.9544
_cell_angle_gamma    15.249

_symmetry_Int_Tables_number  12
_chemical_formula_structural  Nb4CuSe8
_chemical_formula_sum  Nb4CuSe8
_cell_volume  273.50826473492043
_cell_formula_units_Z  1
loop_
  _symmetry_equiv_pos_site_id
 _symmetry_equiv_pos_as_xyz
 1  'x, y, z'
loop_
 _atom_site_type_symbol
 _atom_site_label
 _atom_site_symmetry_multiplicity
 _atom_site_fract_x
 _atom_site_fract_y
 _atom_site_fract_z
 _atom_site_fract_occupancy
 Cu  Cu1  1  0.00000  0.00000  0.00000  1
 Nb  Nb1  1  0.37349  0.37349  0.63930  1
 Nb  Nb2  1  0.87388  0.87388  0.11544  1
 Nb  Nb3  1  0.62651  0.62651  0.36070  1
 Nb  Nb4  1  0.12612  0.12612  0.88456  1
 Se  Se1  1  0.94113  0.94113  0.71797  1
 Se  Se2  1  0.43840  0.43840  0.23614  1
 Se  Se3  1  0.56160  0.56160  0.76386  1
 Se  Se4  1  0.05887  0.05887  0.28203  1
 Se  Se5  1  0.69009  0.69009  0.64208  1
 Se  Se6  1  0.19315  0.19315  0.14014  1
 Se  Se7  1  0.80685  0.80685  0.85986  1
 Se  Se8  1  0.30991  0.30991  0.35792  1
