CIF file written using JARVIS-Tools package.
data_NiGeMo
_symmetry_space_group_name_H-M  'Amm2'
_cell_length_a       4.98415
_cell_length_b       4.98414
_cell_length_c       7.48116
_cell_angle_alpha    90
_cell_angle_beta     90
_cell_angle_gamma    119.346

_symmetry_Int_Tables_number  38
_chemical_formula_structural  NiGeMo
_chemical_formula_sum  Ni4Ge4Mo4
_cell_volume  161.99655484893847
_cell_formula_units_Z  4
loop_
  _symmetry_equiv_pos_site_id
 _symmetry_equiv_pos_as_xyz
 1  'x, y, z'
loop_
 _atom_site_type_symbol
 _atom_site_label
 _atom_site_symmetry_multiplicity
 _atom_site_fract_x
 _atom_site_fract_y
 _atom_site_fract_z
 _atom_site_fract_occupancy
 Ge  Ge1  1  0.16649  0.83351  0.50000  1
 Ge  Ge2  1  0.34280  0.16807  0.00000  1
 Ge  Ge3  1  0.83193  0.65720  0.00000  1
 Ge  Ge4  1  0.83073  0.16927  0.00000  1
 Mo  Mo1  1  0.66746  0.33254  0.32460  1
 Mo  Mo2  1  0.33538  0.66462  0.18625  1
 Mo  Mo3  1  0.33538  0.66462  0.81375  1
 Mo  Mo4  1  0.66746  0.33254  0.67540  1
 Ni  Ni1  1  0.00196  0.99804  0.24326  1
 Ni  Ni2  1  0.00196  0.99804  0.75674  1
 Ni  Ni3  1  0.65148  0.83298  0.50000  1
 Ni  Ni4  1  0.16702  0.34852  0.50000  1
