CIF file written using JARVIS-Tools package.
data_Na4Ca2SiP4
_symmetry_space_group_name_H-M  'Cc'
_cell_length_a       9.09588
_cell_length_b       9.09589
_cell_length_c       6.95796
_cell_angle_alpha    88.9585
_cell_angle_beta     88.9585
_cell_angle_gamma    119.751

_symmetry_Int_Tables_number  9
_chemical_formula_structural  Na4Ca2SiP4
_chemical_formula_sum  Na8Ca4Si2P8
_cell_volume  499.45974045665355
_cell_formula_units_Z  2
loop_
  _symmetry_equiv_pos_site_id
 _symmetry_equiv_pos_as_xyz
 1  'x, y, z'
loop_
 _atom_site_type_symbol
 _atom_site_label
 _atom_site_symmetry_multiplicity
 _atom_site_fract_x
 _atom_site_fract_y
 _atom_site_fract_z
 _atom_site_fract_occupancy
 Ca  Ca1  1  0.05294  0.52814  0.39043  1
 Ca  Ca2  1  0.47964  0.52964  0.38492  1
 Ca  Ca3  1  0.52814  0.05294  0.89043  1
 Ca  Ca4  1  0.52964  0.47964  0.88492  1
 Na  Na1  1  0.14051  0.85095  0.70448  1
 Na  Na2  1  0.71973  0.86364  0.67936  1
 Na  Na3  1  0.47427  0.94295  0.38921  1
 Na  Na4  1  0.85095  0.14051  0.20448  1
 Na  Na5  1  0.28348  0.13345  0.22767  1
 Na  Na6  1  0.86364  0.71973  0.17936  1
 Na  Na7  1  0.94295  0.47427  0.88921  1
 Na  Na8  1  0.13345  0.28348  0.72767  1
 P  P1  1  0.80286  0.61007  0.58935  1
 P  P2  1  0.39054  0.20153  0.62417  1
 P  P3  1  0.65919  0.33517  0.16951  1
 P  P4  1  0.33517  0.65919  0.66951  1
 P  P5  1  0.20153  0.39054  0.12417  1
 P  P6  1  0.61007  0.80286  0.08935  1
 P  P7  1  0.20154  0.80710  0.10496  1
 P  P8  1  0.80710  0.20154  0.60496  1
 Si  Si1  1  0.66285  0.32993  0.49995  1
 Si  Si2  1  0.32993  0.66285  -0.00005  1
