CIF file written using JARVIS-Tools package.
data_Mn3Ni4Sb
_symmetry_space_group_name_H-M  'P4/mmm'
_cell_length_a       4.06814
_cell_length_b       6.32344
_cell_length_c       8.13269
_cell_angle_alpha    90
_cell_angle_beta     90
_cell_angle_gamma    90

_symmetry_Int_Tables_number  123
_chemical_formula_structural  Mn3Ni4Sb
_chemical_formula_sum  Mn6Ni8Sb2
_cell_volume  209.21085663591194
_cell_formula_units_Z  2
loop_
  _symmetry_equiv_pos_site_id
 _symmetry_equiv_pos_as_xyz
 1  'x, y, z'
loop_
 _atom_site_type_symbol
 _atom_site_label
 _atom_site_symmetry_multiplicity
 _atom_site_fract_x
 _atom_site_fract_y
 _atom_site_fract_z
 _atom_site_fract_occupancy
 Mn  Mn1  1  0.00000  0.00000  0.00000  1
 Mn  Mn2  1  0.00000  0.00000  0.50000  1
 Mn  Mn3  1  0.49999  0.00000  0.75000  1
 Mn  Mn4  1  0.50001  0.00000  0.25000  1
 Mn  Mn5  1  0.50001  0.50000  0.75000  1
 Mn  Mn6  1  0.49999  0.50000  0.25000  1
 Ni  Ni1  1  0.50000  0.77050  0.00000  1
 Ni  Ni2  1  0.50000  0.77050  0.50000  1
 Ni  Ni3  1  0.50000  0.22950  0.00000  1
 Ni  Ni4  1  0.50000  0.22950  0.50000  1
 Ni  Ni5  1  0.00002  0.77051  0.75000  1
 Ni  Ni6  1  -0.00002  0.77051  0.25000  1
 Ni  Ni7  1  -0.00002  0.22949  0.25000  1
 Ni  Ni8  1  0.00002  0.22949  0.75000  1
 Sb  Sb1  1  0.00000  0.50000  0.00000  1
 Sb  Sb2  1  0.00000  0.50000  0.50000  1
