CIF file written using JARVIS-Tools package.
data_CoO2
_symmetry_space_group_name_H-M  'P6_3mc'
_cell_length_a       5.57455
_cell_length_b       5.57455
_cell_length_c       8.41953
_cell_angle_alpha    90
_cell_angle_beta     90
_cell_angle_gamma    120

_symmetry_Int_Tables_number  186
_chemical_formula_structural  CoO2
_chemical_formula_sum  Co8O6
_cell_volume  226.58885012515262
_cell_formula_units_Z  8
loop_
  _symmetry_equiv_pos_site_id
 _symmetry_equiv_pos_as_xyz
 1  'x, y, z'
loop_
 _atom_site_type_symbol
 _atom_site_label
 _atom_site_symmetry_multiplicity
 _atom_site_fract_x
 _atom_site_fract_y
 _atom_site_fract_z
 _atom_site_fract_occupancy
 Co  Co1  1  0.16697  0.83303  0.20796  1
 Co  Co2  1  0.33333  0.66667  0.48968  1
 Co  Co3  1  0.16697  0.33393  0.20796  1
 Co  Co4  1  0.66607  0.83303  0.20796  1
 Co  Co5  1  0.33393  0.16697  0.70796  1
 Co  Co6  1  0.66667  0.33333  0.98968  1
 Co  Co7  1  0.83303  0.66607  0.70796  1
 Co  Co8  1  0.83303  0.16697  0.70796  1
 O  O1  1  0.16728  0.83272  0.60221  1
 O  O2  1  0.04205  0.52103  0.34176  1
 O  O3  1  0.33333  0.66667  0.09589  1
 O  O4  1  0.95795  0.47897  0.84176  1
 O  O5  1  0.00000  0.00000  0.82357  1
 O  O6  1  0.16728  0.33456  0.60221  1
 O  O7  1  0.00000  0.00000  0.32357  1
 O  O8  1  0.52103  0.47897  0.84176  1
 O  O9  1  0.33456  0.16728  0.10221  1
 O  O10  1  0.66544  0.83272  0.60221  1
 O  O11  1  0.47897  0.95795  0.34176  1
 O  O12  1  0.52103  0.04205  0.84176  1
 O  O13  1  0.66667  0.33333  0.59589  1
 O  O14  1  0.83272  0.66544  0.10221  1
 O  O15  1  0.47897  0.52103  0.34176  1
 O  O16  1  0.83272  0.16728  0.10221  1
