CIF file written using JARVIS-Tools package.
data_LiVF4
_symmetry_space_group_name_H-M  'P2_1/c'
_cell_length_a       4.66553
_cell_length_b       5.53995
_cell_length_c       10.2224
_cell_angle_alpha    83.6837
_cell_angle_beta     90
_cell_angle_gamma    90

_symmetry_Int_Tables_number  14
_chemical_formula_structural  LiVF4
_chemical_formula_sum  Li4V4F6
_cell_volume  262.6134525700291
_cell_formula_units_Z  4
loop_
  _symmetry_equiv_pos_site_id
 _symmetry_equiv_pos_as_xyz
 1  'x, y, z'
loop_
 _atom_site_type_symbol
 _atom_site_label
 _atom_site_symmetry_multiplicity
 _atom_site_fract_x
 _atom_site_fract_y
 _atom_site_fract_z
 _atom_site_fract_occupancy
 F  F1  1  0.18981  0.35364  0.54915  1
 F  F2  1  0.81829  0.89135  0.69882  1
 F  F3  1  0.68171  0.89135  0.19882  1
 F  F4  1  0.30319  0.83965  0.55016  1
 F  F5  1  0.31829  0.10865  0.80118  1
 F  F6  1  0.68981  0.64636  0.95085  1
 F  F7  1  0.81019  0.64636  0.45085  1
 F  F8  1  0.19681  0.83965  0.05016  1
 F  F9  1  0.28666  0.59096  0.29876  1
 F  F10  1  0.71334  0.40904  0.70124  1
 F  F11  1  0.78666  0.40904  0.20124  1
 F  F12  1  0.18171  0.10865  0.30118  1
 F  F13  1  0.31019  0.35364  0.04915  1
 F  F14  1  0.80319  0.16035  0.94984  1
 F  F15  1  0.69681  0.16035  0.44984  1
 F  F16  1  0.21334  0.59096  0.79876  1
 Li  Li1  1  0.49417  -0.10077  0.37477  1
 Li  Li2  1  0.00583  -0.10077  0.87477  1
 Li  Li3  1  0.99417  0.10077  0.12523  1
 Li  Li4  1  0.50583  0.10077  0.62523  1
 V  V1  1  0.98930  0.36497  0.37419  1
 V  V2  1  0.51070  0.36497  0.87419  1
 V  V3  1  0.48930  0.63503  0.12581  1
 V  V4  1  0.01070  0.63503  0.62581  1
