CIF file written using JARVIS-Tools package.
data_Li3Fe4O8
_symmetry_space_group_name_H-M  'R-3m'
_cell_length_a       5.61725
_cell_length_b       5.61725
_cell_length_c       5.75786
_cell_angle_alpha    60.8134
_cell_angle_beta     89.9911
_cell_angle_gamma    119.999

_symmetry_Int_Tables_number  166
_chemical_formula_structural  Li3Fe4O8
_chemical_formula_sum  Li3Fe4O8
_cell_volume  130.01764543646047
_cell_formula_units_Z  1
loop_
  _symmetry_equiv_pos_site_id
 _symmetry_equiv_pos_as_xyz
 1  'x, y, z'
loop_
 _atom_site_type_symbol
 _atom_site_label
 _atom_site_symmetry_multiplicity
 _atom_site_fract_x
 _atom_site_fract_y
 _atom_site_fract_z
 _atom_site_fract_occupancy
 Fe  Fe1  1  0.00000  0.50000  0.00000  1
 Fe  Fe2  1  0.00000  0.00000  0.00000  1
 Fe  Fe3  1  0.50000  0.50000  -0.00000  1
 Fe  Fe4  1  0.50000  0.00000  -0.00000  1
 Li  Li1  1  0.00000  0.50000  0.50000  1
 Li  Li2  1  0.50000  0.50000  0.50000  1
 Li  Li3  1  0.50000  0.00000  0.50000  1
 O  O1  1  0.24254  0.97941  0.78366  1
 O  O2  1  0.26306  0.52620  0.21634  1
 O  O3  1  0.24124  0.48241  0.77635  1
 O  O4  1  0.26306  0.02060  0.21634  1
 O  O5  1  0.73694  0.97940  0.78366  1
 O  O6  1  0.75876  0.51759  0.22365  1
 O  O7  1  0.73694  0.47380  0.78366  1
 O  O8  1  0.75746  0.02059  0.21634  1
