CIF file written using JARVIS-Tools package.
data_ScOF4
_symmetry_space_group_name_H-M  'I422'
_cell_length_a       4.29144
_cell_length_b       4.29144
_cell_length_c       4.29144
_cell_angle_alpha    107.945
_cell_angle_beta     107.945
_cell_angle_gamma    112.569

_symmetry_Int_Tables_number  97
_chemical_formula_structural  ScOF4
_chemical_formula_sum  ScOF4
_cell_volume  60.705765917477535
_cell_formula_units_Z  1
loop_
  _symmetry_equiv_pos_site_id
 _symmetry_equiv_pos_as_xyz
 1  'x, y, z'
loop_
 _atom_site_type_symbol
 _atom_site_label
 _atom_site_symmetry_multiplicity
 _atom_site_fract_x
 _atom_site_fract_y
 _atom_site_fract_z
 _atom_site_fract_occupancy
 F  F1  1  0.96252  0.46256  0.13809  1
 F  F2  1  0.82443  0.96252  0.49997  1
 F  F3  1  0.46256  0.32447  0.50003  1
 F  F4  1  0.32447  0.82443  0.86191  1
 O  O1  1  0.39345  0.39345  0.00000  1
 Sc  Sc1  1  -0.10653  -0.10653  -0.00000  1
