CIF file written using JARVIS-Tools package.
data_LiCo2O4
_symmetry_space_group_name_H-M  'C2/m'
_cell_length_a       2.81923
_cell_length_b       4.84848
_cell_length_c       9.63668
_cell_angle_alpha    85.6908
_cell_angle_beta     81.5887
_cell_angle_gamma    90

_symmetry_Int_Tables_number  12
_chemical_formula_structural  LiCo2O4
_chemical_formula_sum  Li2Co4O8
_cell_volume  129.93058810774988
_cell_formula_units_Z  2
loop_
  _symmetry_equiv_pos_site_id
 _symmetry_equiv_pos_as_xyz
 1  'x, y, z'
loop_
 _atom_site_type_symbol
 _atom_site_label
 _atom_site_symmetry_multiplicity
 _atom_site_fract_x
 _atom_site_fract_y
 _atom_site_fract_z
 _atom_site_fract_occupancy
 Co  Co1  1  0.49585  0.49676  0.00831  1
 Co  Co2  1  0.00415  0.00324  0.99169  1
 Co  Co3  1  0.25000  0.75000  0.50000  1
 Co  Co4  1  0.75000  0.25000  0.50000  1
 Li  Li1  1  0.62711  0.54416  0.74578  1
 Li  Li2  1  0.87289  0.95584  0.25422  1
 O  O1  1  0.05149  0.67242  0.89701  1
 O  O2  1  0.55183  0.19116  0.89633  1
 O  O3  1  0.44851  0.82758  0.10299  1
 O  O4  1  0.94817  0.30884  0.10367  1
 O  O5  1  0.30231  0.09690  0.39539  1
 O  O6  1  0.80072  0.60114  0.39857  1
 O  O7  1  0.19769  0.40310  0.60461  1
 O  O8  1  0.69928  0.89886  0.60143  1
