CIF file written using JARVIS-Tools package.
data_Li2VCrO4
_symmetry_space_group_name_H-M  'Imma'
_cell_length_a       5.89253
_cell_length_b       5.89253
_cell_length_c       5.89254
_cell_angle_alpha    121.344
_cell_angle_beta     120.077
_cell_angle_gamma    88.7775

_symmetry_Int_Tables_number  74
_chemical_formula_structural  Li2VCrO4
_chemical_formula_sum  Li4V2Cr2O8
_cell_volume  143.06348008407755
_cell_formula_units_Z  2
loop_
  _symmetry_equiv_pos_site_id
 _symmetry_equiv_pos_as_xyz
 1  'x, y, z'
loop_
 _atom_site_type_symbol
 _atom_site_label
 _atom_site_symmetry_multiplicity
 _atom_site_fract_x
 _atom_site_fract_y
 _atom_site_fract_z
 _atom_site_fract_occupancy
 Cr  Cr1  1  0.00000  0.50000  0.50000  1
 Cr  Cr2  1  0.50000  0.50000  -0.00000  1
 Li  Li1  1  0.00000  0.00000  0.00000  1
 Li  Li2  1  0.50000  0.00000  -0.00000  1
 Li  Li3  1  0.50000  0.00000  0.50000  1
 Li  Li4  1  0.50000  0.50000  0.50000  1
 O  O1  1  0.75802  0.74450  0.48648  1
 O  O2  1  0.74873  0.73917  0.00956  1
 O  O3  1  0.22961  0.73917  0.49044  1
 O  O4  1  0.24198  0.72846  0.98648  1
 O  O5  1  0.75802  0.27154  0.01352  1
 O  O6  1  0.77039  0.26083  0.50956  1
 O  O7  1  0.25127  0.26083  0.99044  1
 O  O8  1  0.24198  0.25550  0.51352  1
 V  V1  1  -0.00000  0.00000  0.50000  1
 V  V2  1  0.00000  0.50000  0.00000  1
