CIF file written using JARVIS-Tools package.
data_Fe3Co3Sb2O16
_symmetry_space_group_name_H-M  'Cm'
_cell_length_a       5.66894
_cell_length_b       5.66893
_cell_length_c       9.17958
_cell_angle_alpha    90.0102
_cell_angle_beta     90.0102
_cell_angle_gamma    59.8098

_symmetry_Int_Tables_number  8
_chemical_formula_structural  Fe3Co3Sb2O16
_chemical_formula_sum  Fe3Co3Sb2O6
_cell_volume  254.98846973076476
_cell_formula_units_Z  1
loop_
  _symmetry_equiv_pos_site_id
 _symmetry_equiv_pos_as_xyz
 1  'x, y, z'
loop_
 _atom_site_type_symbol
 _atom_site_label
 _atom_site_symmetry_multiplicity
 _atom_site_fract_x
 _atom_site_fract_y
 _atom_site_fract_z
 _atom_site_fract_occupancy
 Co  Co1  1  0.16914  0.66282  0.21375  1
 Co  Co2  1  0.66282  0.16914  0.21375  1
 Co  Co3  1  0.83127  0.83127  0.71413  1
 Fe  Fe1  1  0.16781  0.16781  0.21408  1
 Fe  Fe2  1  0.33667  0.83134  0.71405  1
 Fe  Fe3  1  0.83134  0.33667  0.71405  1
 O  O1  1  0.16052  0.68536  0.60182  1
 O  O2  1  0.48537  0.48537  0.33155  1
 O  O3  1  0.33139  0.33139  0.11081  1
 O  O4  1  0.51609  0.51609  0.83496  1
 O  O5  1  0.00067  0.00067  0.81212  1
 O  O6  1  0.68536  0.16052  0.60182  1
 O  O7  1  0.00188  0.00188  0.31131  1
 O  O8  1  0.48570  0.02971  0.33300  1
 O  O9  1  0.51424  0.96919  0.83257  1
 O  O10  1  0.16213  0.16213  0.60291  1
 O  O11  1  0.02971  0.48570  0.33300  1
 O  O12  1  0.96919  0.51424  0.83257  1
 O  O13  1  0.66624  0.66624  0.61027  1
 O  O14  1  0.31924  0.84319  0.10257  1
 O  O15  1  0.84631  0.84631  0.09824  1
 O  O16  1  0.84319  0.31924  0.10257  1
 Sb  Sb1  1  0.67048  0.67048  0.99393  1
 Sb  Sb2  1  0.33621  0.33621  0.49017  1
