CIF file written using JARVIS-Tools package.
data_LaFe2PbO6
_symmetry_space_group_name_H-M  'Imm2'
_cell_length_a       5.48601
_cell_length_b       5.45351
_cell_length_c       7.68737
_cell_angle_alpha    90
_cell_angle_beta     90
_cell_angle_gamma    90

_symmetry_Int_Tables_number  44
_chemical_formula_structural  LaFe2PbO6
_chemical_formula_sum  La2Fe4Pb2O2
_cell_volume  229.99087199071516
_cell_formula_units_Z  2
loop_
  _symmetry_equiv_pos_site_id
 _symmetry_equiv_pos_as_xyz
 1  'x, y, z'
loop_
 _atom_site_type_symbol
 _atom_site_label
 _atom_site_symmetry_multiplicity
 _atom_site_fract_x
 _atom_site_fract_y
 _atom_site_fract_z
 _atom_site_fract_occupancy
 Fe  Fe1  1  0.00005  0.25001  0.74992  1
 Fe  Fe2  1  0.50005  0.74999  0.24992  1
 Fe  Fe3  1  0.00005  0.25001  0.25008  1
 Fe  Fe4  1  0.50005  0.74999  0.75008  1
 La  La1  1  0.99893  0.74996  0.50000  1
 La  La2  1  0.49893  0.25004  0.00000  1
 O  O1  1  0.25284  0.00286  0.76908  1
 O  O2  1  0.53135  0.75000  0.00000  1
 O  O3  1  0.75265  0.50268  0.26906  1
 O  O4  1  0.75284  -0.00286  0.73092  1
 O  O5  1  0.25265  0.49732  0.23094  1
 O  O6  1  0.75284  -0.00286  0.26908  1
 O  O7  1  0.45756  0.75000  0.50000  1
 O  O8  1  0.25265  0.49732  0.76906  1
 O  O9  1  0.75265  0.50268  0.73094  1
 O  O10  1  0.03135  0.25000  0.50000  1
 O  O11  1  0.25284  0.00286  0.23092  1
 O  O12  1  0.95756  0.25000  0.00000  1
 Pb  Pb1  1  0.00109  0.75006  0.00000  1
 Pb  Pb2  1  0.50109  0.24994  0.50000  1
