CIF file written using JARVIS-Tools package.
data_V6O11F
_symmetry_space_group_name_H-M  'Amm2'
_cell_length_a       10.3992
_cell_length_b       10.3992
_cell_length_c       2.86867
_cell_angle_alpha    90
_cell_angle_beta     90
_cell_angle_gamma    143.983

_symmetry_Int_Tables_number  38
_chemical_formula_structural  V6O11F
_chemical_formula_sum  V6OF
_cell_volume  182.4247482803681
_cell_formula_units_Z  1
loop_
  _symmetry_equiv_pos_site_id
 _symmetry_equiv_pos_as_xyz
 1  'x, y, z'
loop_
 _atom_site_type_symbol
 _atom_site_label
 _atom_site_symmetry_multiplicity
 _atom_site_fract_x
 _atom_site_fract_y
 _atom_site_fract_z
 _atom_site_fract_occupancy
 F  F1  1  0.93393  0.06607  0.50000  1
 O  O1  1  0.06970  0.93030  0.50000  1
 O  O2  1  0.70317  0.70463  0.00000  1
 O  O3  1  0.03081  0.36372  0.00000  1
 O  O4  1  0.96672  0.63196  0.00000  1
 O  O5  1  0.29537  0.29683  0.00000  1
 O  O6  1  0.59736  0.40264  0.50000  1
 O  O7  1  0.26832  0.73168  0.50000  1
 O  O8  1  0.73123  0.26877  0.50000  1
 O  O9  1  0.40023  0.59977  0.50000  1
 O  O10  1  0.36804  0.03328  0.00000  1
 O  O11  1  0.63628  0.96919  0.00000  1
 V  V1  1  0.82187  0.17813  0.50000  1
 V  V2  1  0.33534  0.66466  0.00000  1
 V  V3  1  0.66075  0.33925  0.00000  1
 V  V4  1  0.49721  0.50279  0.50000  1
 V  V5  1  0.17304  0.82696  0.50000  1
 V  V6  1  0.00891  0.99109  0.00000  1
