CIF file written using JARVIS-Tools package.
data_Sc2O3F
_symmetry_space_group_name_H-M  'Amm2'
_cell_length_a       3.22946
_cell_length_b       4.8616
_cell_length_c       4.8616
_cell_angle_alpha    88.4954
_cell_angle_beta     90
_cell_angle_gamma    90

_symmetry_Int_Tables_number  38
_chemical_formula_structural  Sc2O3F
_chemical_formula_sum  Sc2O3F
_cell_volume  76.30250344337378
_cell_formula_units_Z  1
loop_
  _symmetry_equiv_pos_site_id
 _symmetry_equiv_pos_as_xyz
 1  'x, y, z'
loop_
 _atom_site_type_symbol
 _atom_site_label
 _atom_site_symmetry_multiplicity
 _atom_site_fract_x
 _atom_site_fract_y
 _atom_site_fract_z
 _atom_site_fract_occupancy
 F  F1  1  0.50000  0.80290  0.80290  1
 O  O1  1  0.50000  0.19531  0.19531  1
 O  O2  1  0.00000  0.30042  0.69609  1
 O  O3  1  0.00000  0.69609  0.30042  1
 Sc  Sc1  1  0.00000  0.01356  0.01356  1
 Sc  Sc2  1  0.50000  0.49172  0.49172  1
