CIF file written using JARVIS-Tools package.
data_La2VFeO6
_symmetry_space_group_name_H-M  'P2_1/c'
_cell_length_a       5.44733
_cell_length_b       7.73255
_cell_length_c       5.48487
_cell_angle_alpha    89.9649
_cell_angle_beta     90.0026
_cell_angle_gamma    89.9992

_symmetry_Int_Tables_number  14
_chemical_formula_structural  La2VFeO6
_chemical_formula_sum  La4V2Fe2O2
_cell_volume  231.0321549069335
_cell_formula_units_Z  2
loop_
  _symmetry_equiv_pos_site_id
 _symmetry_equiv_pos_as_xyz
 1  'x, y, z'
loop_
 _atom_site_type_symbol
 _atom_site_label
 _atom_site_symmetry_multiplicity
 _atom_site_fract_x
 _atom_site_fract_y
 _atom_site_fract_z
 _atom_site_fract_occupancy
 Fe  Fe1  1  0.00000  0.50000  0.50000  1
 Fe  Fe2  1  0.50000  0.00000  0.00000  1
 La  La1  1  0.52226  0.25068  0.50393  1
 La  La2  1  0.02233  0.24930  0.99631  1
 La  La3  1  0.47774  0.74931  0.49607  1
 La  La4  1  0.97767  0.75070  0.00369  1
 O  O1  1  0.99379  0.25048  0.43702  1
 O  O2  1  0.77692  0.46674  0.77624  1
 O  O3  1  0.00621  0.74952  0.56298  1
 O  O4  1  0.50632  0.75048  0.93692  1
 O  O5  1  0.49368  0.24952  0.06308  1
 O  O6  1  0.27559  0.46688  0.72414  1
 O  O7  1  0.22308  0.53326  0.22376  1
 O  O8  1  0.72442  0.53312  0.27586  1
 O  O9  1  0.77561  0.03318  0.77591  1
 O  O10  1  0.72308  0.96682  0.27624  1
 O  O11  1  0.22439  0.96682  0.22409  1
 O  O12  1  0.27691  0.03318  0.72376  1
 V  V1  1  0.49999  0.50000  -0.00000  1
 V  V2  1  0.00001  -0.00000  0.50000  1
