CIF file written using JARVIS-Tools package.
data_KNb4AgP2S20
_symmetry_space_group_name_H-M  'P1'
_cell_length_a       7.0669
_cell_length_b       7.13094
_cell_length_c       13.0678
_cell_angle_alpha    89.6072
_cell_angle_beta     76.4267
_cell_angle_gamma    90.0276

_symmetry_Int_Tables_number  1
_chemical_formula_structural  KNb4AgP2S20
_chemical_formula_sum  KNb4AgP2S20
_cell_volume  640.12319080057
_cell_formula_units_Z  1
loop_
  _symmetry_equiv_pos_site_id
 _symmetry_equiv_pos_as_xyz
 1  'x, y, z'
loop_
 _atom_site_type_symbol
 _atom_site_label
 _atom_site_symmetry_multiplicity
 _atom_site_fract_x
 _atom_site_fract_y
 _atom_site_fract_z
 _atom_site_fract_occupancy
 Ag  Ag1  1  0.50658  0.50161  0.99653  1
 K  K1  1  0.57512  0.49795  0.41817  1
 Nb  Nb1  1  0.00399  0.07008  0.89442  1
 Nb  Nb2  1  0.99483  0.93545  0.10560  1
 Nb  Nb3  1  0.00329  0.06455  0.60599  1
 Nb  Nb4  1  0.99650  0.93039  0.39696  1
 P  P1  1  0.78905  0.39487  0.77445  1
 P  P2  1  0.20747  0.60734  0.22209  1
 S  S1  1  0.13268  0.85217  0.73545  1
 S  S2  1  0.95361  0.42736  0.62165  1
 S  S3  1  0.71162  0.08803  0.04939  1
 S  S4  1  0.26059  0.11522  0.71683  1
 S  S5  1  0.73821  0.10327  0.78338  1
 S  S6  1  0.73747  0.88959  0.28312  1
 S  S7  1  0.86955  0.15021  0.26876  1
 S  S8  1  0.26083  0.89715  0.21721  1
 S  S9  1  0.28744  0.91784  0.95160  1
 S  S10  1  0.71578  0.08601  0.52368  1
 S  S11  1  0.76893  0.81676  0.56792  1
 S  S12  1  0.54457  0.54980  0.80372  1
 S  S13  1  0.77656  0.82160  0.99152  1
 S  S14  1  0.23207  0.17229  0.43463  1
 S  S15  1  0.28246  0.90391  0.48096  1
 S  S16  1  0.03474  0.57302  0.11687  1
 S  S17  1  0.95821  0.43094  0.88242  1
 S  S18  1  0.45216  0.45037  0.19052  1
 S  S19  1  0.22181  0.18438  0.00895  1
 S  S20  1  0.05246  0.56767  0.37691  1
