CIF file written using JARVIS-Tools package.
data_Li2VAsCO7
_symmetry_space_group_name_H-M  'P2_1/m'
_cell_length_a       5.00907
_cell_length_b       8.61378
_cell_length_c       6.5257
_cell_angle_alpha    89.9991
_cell_angle_beta     89.9999
_cell_angle_gamma    86.564

_symmetry_Int_Tables_number  11
_chemical_formula_structural  Li2VAsCO7
_chemical_formula_sum  Li4V2As2C2O4
_cell_volume  281.05845115112203
_cell_formula_units_Z  2
loop_
  _symmetry_equiv_pos_site_id
 _symmetry_equiv_pos_as_xyz
 1  'x, y, z'
loop_
 _atom_site_type_symbol
 _atom_site_label
 _atom_site_symmetry_multiplicity
 _atom_site_fract_x
 _atom_site_fract_y
 _atom_site_fract_z
 _atom_site_fract_occupancy
 As  As1  1  0.71303  0.41582  0.25000  1
 As  As2  1  0.28697  0.58418  0.75000  1
 C  C1  1  0.72483  0.04857  0.75000  1
 C  C2  1  0.27517  0.95143  0.25000  1
 Li  Li1  1  0.21973  0.20744  0.51036  1
 Li  Li2  1  0.21973  0.20744  0.98964  1
 Li  Li3  1  0.78028  0.79256  0.48964  1
 Li  Li4  1  0.78028  0.79256  0.01037  1
 O  O1  1  0.31252  0.09527  0.25000  1
 O  O2  1  0.17284  0.69347  0.54485  1
 O  O3  1  0.96273  0.10428  0.75001  1
 O  O4  1  0.03727  0.89572  0.24999  1
 O  O5  1  0.52651  0.15728  0.75000  1
 O  O6  1  0.68747  0.90473  0.75000  1
 O  O7  1  0.16551  0.39989  0.75001  1
 O  O8  1  0.82714  0.30653  0.04485  1
 O  O9  1  0.36912  0.44591  0.25001  1
 O  O10  1  0.63088  0.55409  0.74999  1
 O  O11  1  0.47349  0.84271  0.25000  1
 O  O12  1  0.82716  0.30653  0.45515  1
 O  O13  1  0.83449  0.60011  0.24999  1
 O  O14  1  0.17286  0.69347  0.95515  1
 V  V1  1  0.79546  0.33225  0.75000  1
 V  V2  1  0.20454  0.66774  0.25000  1
