CIF file written using JARVIS-Tools package.
data_TlSnF3
_symmetry_space_group_name_H-M  'P1'
_cell_length_a       4.51755
_cell_length_b       4.55168
_cell_length_c       4.99871
_cell_angle_alpha    78.7976
_cell_angle_beta     81.2694
_cell_angle_gamma    82.853

_symmetry_Int_Tables_number  1
_chemical_formula_structural  TlSnF3
_chemical_formula_sum  TlSnF3
_cell_volume  99.18022611511876
_cell_formula_units_Z  1
loop_
  _symmetry_equiv_pos_site_id
 _symmetry_equiv_pos_as_xyz
 1  'x, y, z'
loop_
 _atom_site_type_symbol
 _atom_site_label
 _atom_site_symmetry_multiplicity
 _atom_site_fract_x
 _atom_site_fract_y
 _atom_site_fract_z
 _atom_site_fract_occupancy
 F  F1  1  -0.00695  0.44875  0.54287  1
 F  F2  1  0.40885  0.46441  0.89510  1
 F  F3  1  0.55420  0.03634  0.57262  1
 Sn  Sn1  1  0.51586  0.52886  0.46156  1
 Tl  Tl1  1  0.02804  0.01165  0.96784  1
