CIF file written using JARVIS-Tools package.
data_ScHO
_symmetry_space_group_name_H-M  'Pm'
_cell_length_a       3.28839
_cell_length_b       5.85354
_cell_length_c       3.1272
_cell_angle_alpha    90
_cell_angle_beta     90
_cell_angle_gamma    56.1229

_symmetry_Int_Tables_number  6
_chemical_formula_structural  ScHO
_chemical_formula_sum  ScHO
_cell_volume  49.97561538723179
_cell_formula_units_Z  1
loop_
  _symmetry_equiv_pos_site_id
 _symmetry_equiv_pos_as_xyz
 1  'x, y, z'
loop_
 _atom_site_type_symbol
 _atom_site_label
 _atom_site_symmetry_multiplicity
 _atom_site_fract_x
 _atom_site_fract_y
 _atom_site_fract_z
 _atom_site_fract_occupancy
 H  H1  1  0.09351  -0.14307  0.00000  1
 O  O1  1  -0.11186  0.06229  0.00000  1
 Sc  Sc1  1  0.14492  0.30748  0.00000  1
