CIF file written using JARVIS-Tools package.
data_KU2SbSe8
_symmetry_space_group_name_H-M  'Cm'
_cell_length_a       6.95619
_cell_length_b       6.95619
_cell_length_c       7.41518
_cell_angle_alpha    80.9905
_cell_angle_beta     80.9905
_cell_angle_gamma    109.321

_symmetry_Int_Tables_number  8
_chemical_formula_structural  KU2SbSe8
_chemical_formula_sum  KU2SbSe8
_cell_volume  325.95640729171765
_cell_formula_units_Z  1
loop_
  _symmetry_equiv_pos_site_id
 _symmetry_equiv_pos_as_xyz
 1  'x, y, z'
loop_
 _atom_site_type_symbol
 _atom_site_label
 _atom_site_symmetry_multiplicity
 _atom_site_fract_x
 _atom_site_fract_y
 _atom_site_fract_z
 _atom_site_fract_occupancy
 K  K1  1  0.11779  0.11779  0.52942  1
 Sb  Sb1  1  0.58207  0.58207  0.66559  1
 Se  Se1  1  0.06390  0.80913  0.23482  1
 Se  Se2  1  0.80913  0.06390  0.23482  1
 Se  Se3  1  0.78133  0.78133  0.89380  1
 Se  Se4  1  0.26934  0.26934  0.89801  1
 Se  Se5  1  0.57480  0.31466  0.23949  1
 Se  Se6  1  0.31466  0.57480  0.23949  1
 Se  Se7  1  0.81243  0.32035  0.73246  1
 Se  Se8  1  0.32035  0.81243  0.73246  1
 U  U1  1  0.49522  -0.00407  0.01655  1
 U  U2  1  -0.00407  0.49522  0.01655  1
