CIF file written using JARVIS-Tools package.
data_SiHO
_symmetry_space_group_name_H-M  'Pmmm'
_cell_length_a       4.72124
_cell_length_b       3.35128
_cell_length_c       2.78258
_cell_angle_alpha    90
_cell_angle_beta     90
_cell_angle_gamma    135.212

_symmetry_Int_Tables_number  47
_chemical_formula_structural  SiHO
_chemical_formula_sum  SiHO
_cell_volume  31.01639001961618
_cell_formula_units_Z  1
loop_
  _symmetry_equiv_pos_site_id
 _symmetry_equiv_pos_as_xyz
 1  'x, y, z'
loop_
 _atom_site_type_symbol
 _atom_site_label
 _atom_site_symmetry_multiplicity
 _atom_site_fract_x
 _atom_site_fract_y
 _atom_site_fract_z
 _atom_site_fract_occupancy
 H  H1  1  0.33333  0.16668  0.00000  1
 O  O1  1  -0.16668  0.16665  0.00000  1
 Si  Si1  1  0.83334  0.66667  0.00000  1
