CIF file written using JARVIS-Tools package.
data_Mn4O7F
_symmetry_space_group_name_H-M  'Pc'
_cell_length_a       5.41373
_cell_length_b       4.88349
_cell_length_c       10.0001
_cell_angle_alpha    61.25
_cell_angle_beta     90
_cell_angle_gamma    90

_symmetry_Int_Tables_number  7
_chemical_formula_structural  Mn4O7F
_chemical_formula_sum  Mn8O4F2
_cell_volume  231.7912775665609
_cell_formula_units_Z  2
loop_
  _symmetry_equiv_pos_site_id
 _symmetry_equiv_pos_as_xyz
 1  'x, y, z'
loop_
 _atom_site_type_symbol
 _atom_site_label
 _atom_site_symmetry_multiplicity
 _atom_site_fract_x
 _atom_site_fract_y
 _atom_site_fract_z
 _atom_site_fract_occupancy
 F  F1  1  0.11952  0.20295  0.87759  1
 F  F2  1  0.88048  0.20295  0.37759  1
 Mn  Mn1  1  0.36853  0.52011  0.74149  1
 Mn  Mn2  1  0.65131  0.99723  0.75473  1
 Mn  Mn3  1  0.85794  0.72592  0.50505  1
 Mn  Mn4  1  0.83382  0.24822  0.00604  1
 Mn  Mn5  1  0.34869  0.99723  0.25473  1
 Mn  Mn6  1  0.63147  0.52011  0.24149  1
 Mn  Mn7  1  0.14206  0.72592  0.00505  1
 Mn  Mn8  1  0.16618  0.24822  0.50604  1
 O  O1  1  0.11533  0.68916  0.38525  1
 O  O2  1  0.87768  0.80822  0.11388  1
 O  O3  1  0.10879  0.29565  0.11850  1
 O  O4  1  0.60532  0.28939  0.13367  1
 O  O5  1  0.61588  0.71541  0.36558  1
 O  O6  1  0.38638  0.21806  0.36613  1
 O  O7  1  0.89121  0.29565  0.61850  1
 O  O8  1  0.12232  0.80822  0.61388  1
 O  O9  1  0.62207  0.78968  0.63208  1
 O  O10  1  0.61362  0.21806  0.86613  1
 O  O11  1  0.38412  0.71541  0.86558  1
 O  O12  1  0.88467  0.68916  0.88525  1
 O  O13  1  0.37793  0.78968  0.13208  1
 O  O14  1  0.39468  0.28939  0.63367  1
