CIF file written using JARVIS-Tools package.
data_LiMnSbO4
_symmetry_space_group_name_H-M  'Imma'
_cell_length_a       6.25673
_cell_length_b       6.12221
_cell_length_c       8.99189
_cell_angle_alpha    90.0005
_cell_angle_beta     90.0007
_cell_angle_gamma    89.9996

_symmetry_Int_Tables_number  74
_chemical_formula_structural  LiMnSbO4
_chemical_formula_sum  Li4Mn4Sb4O6
_cell_volume  344.43433751185125
_cell_formula_units_Z  4
loop_
  _symmetry_equiv_pos_site_id
 _symmetry_equiv_pos_as_xyz
 1  'x, y, z'
loop_
 _atom_site_type_symbol
 _atom_site_label
 _atom_site_symmetry_multiplicity
 _atom_site_fract_x
 _atom_site_fract_y
 _atom_site_fract_z
 _atom_site_fract_occupancy
 Li  Li1  1  0.00000  0.25000  0.10213  1
 Li  Li2  1  0.50000  0.75000  0.60213  1
 Li  Li3  1  -0.00000  0.75000  0.89787  1
 Li  Li4  1  0.50000  0.25000  0.39787  1
 Mn  Mn1  1  0.50000  0.00000  0.00000  1
 Mn  Mn2  1  0.00000  0.00000  0.50000  1
 Mn  Mn3  1  0.00000  0.50000  0.50000  1
 Mn  Mn4  1  0.50000  0.50000  -0.00000  1
 O  O1  1  0.50000  0.02484  0.74883  1
 O  O2  1  0.50000  0.52484  0.25117  1
 O  O3  1  0.00000  0.02484  0.75117  1
 O  O4  1  0.00000  0.52484  0.24883  1
 O  O5  1  -0.00000  0.97516  0.24883  1
 O  O6  1  0.23053  0.25000  0.52739  1
 O  O7  1  0.50000  0.97516  0.25117  1
 O  O8  1  0.50000  0.47516  0.74883  1
 O  O9  1  0.23054  0.75000  0.47261  1
 O  O10  1  0.76946  0.25000  0.52739  1
 O  O11  1  0.76947  0.75000  0.47261  1
 O  O12  1  0.26947  0.25000  0.97261  1
 O  O13  1  -0.00000  0.47516  0.75117  1
 O  O14  1  0.26946  0.75000  0.02739  1
 O  O15  1  0.73054  0.25000  0.97261  1
 O  O16  1  0.73053  0.75000  0.02739  1
 Sb  Sb1  1  0.25000  0.75000  0.25000  1
 Sb  Sb2  1  0.75000  0.25000  0.75000  1
 Sb  Sb3  1  0.75000  0.75000  0.25000  1
 Sb  Sb4  1  0.25000  0.25000  0.75000  1
