CIF file written using JARVIS-Tools package.
data_K2Ag3Sb3S7
_symmetry_space_group_name_H-M  'Cmc2_1'
_cell_length_a       13.2379
_cell_length_b       13.2379
_cell_length_c       6.81004
_cell_angle_alpha    90
_cell_angle_beta     90
_cell_angle_gamma    139.713

_symmetry_Int_Tables_number  36
_chemical_formula_structural  K2Ag3Sb3S7
_chemical_formula_sum  K4Ag6Sb6S4
_cell_volume  771.6778262693177
_cell_formula_units_Z  2
loop_
  _symmetry_equiv_pos_site_id
 _symmetry_equiv_pos_as_xyz
 1  'x, y, z'
loop_
 _atom_site_type_symbol
 _atom_site_label
 _atom_site_symmetry_multiplicity
 _atom_site_fract_x
 _atom_site_fract_y
 _atom_site_fract_z
 _atom_site_fract_occupancy
 Ag  Ag1  1  0.41400  0.59662  0.12942  1
 Ag  Ag2  1  0.59662  0.41400  0.12942  1
 Ag  Ag3  1  0.58600  0.40338  0.62942  1
 Ag  Ag4  1  0.40338  0.58600  0.62942  1
 Ag  Ag5  1  0.68207  0.68207  0.36634  1
 Ag  Ag6  1  0.31793  0.31793  0.86634  1
 K  K1  1  0.48576  0.89951  0.68660  1
 K  K2  1  0.51424  0.10049  0.18660  1
 K  K3  1  0.89951  0.48576  0.68660  1
 K  K4  1  0.10049  0.51424  0.18660  1
 S  S1  1  0.52246  0.17646  0.69582  1
 S  S2  1  0.15305  0.30389  0.11398  1
 S  S3  1  0.61497  0.61497  0.01823  1
 S  S4  1  0.38503  0.38503  0.51823  1
 S  S5  1  0.81636  0.19817  0.42882  1
 S  S6  1  0.19817  0.81636  0.42882  1
 S  S7  1  0.80183  0.18364  0.92882  1
 S  S8  1  0.17646  0.52246  0.69582  1
 S  S9  1  0.82354  0.47754  0.19582  1
 S  S10  1  0.30389  0.15305  0.11398  1
 S  S11  1  0.84695  0.69611  0.61398  1
 S  S12  1  0.69611  0.84695  0.61398  1
 S  S13  1  0.18364  0.80183  0.92882  1
 S  S14  1  0.47754  0.82354  0.19582  1
 Sb  Sb1  1  0.01749  0.76103  0.18837  1
 Sb  Sb2  1  0.23897  0.98251  0.68837  1
 Sb  Sb3  1  0.84735  0.84735  0.83091  1
 Sb  Sb4  1  0.76103  0.01749  0.18837  1
 Sb  Sb5  1  0.15265  0.15265  0.33091  1
 Sb  Sb6  1  0.98251  0.23897  0.68837  1
