CIF file written using JARVIS-Tools package.
data_Er2Mn3Sb3O14
_symmetry_space_group_name_H-M  'C2/m'
_cell_length_a       7.10383
_cell_length_b       7.10383
_cell_length_c       7.21171
_cell_angle_alpha    61.6094
_cell_angle_beta     61.6094
_cell_angle_gamma    61.9121

_symmetry_Int_Tables_number  12
_chemical_formula_structural  Er2Mn3Sb3O14
_chemical_formula_sum  Er2Mn3Sb3O4
_cell_volume  267.201194329286
_cell_formula_units_Z  1
loop_
  _symmetry_equiv_pos_site_id
 _symmetry_equiv_pos_as_xyz
 1  'x, y, z'
loop_
 _atom_site_type_symbol
 _atom_site_label
 _atom_site_symmetry_multiplicity
 _atom_site_fract_x
 _atom_site_fract_y
 _atom_site_fract_z
 _atom_site_fract_occupancy
 Er  Er1  1  0.50000  0.00000  0.50000  1
 Er  Er2  1  -0.00000  0.50000  0.50000  1
 Mn  Mn1  1  -0.00000  -0.00000  0.50000  1
 Mn  Mn2  1  0.00000  0.00000  0.00000  1
 Mn  Mn3  1  0.50000  0.50000  0.00000  1
 O  O1  1  0.88330  0.88330  0.37113  1
 O  O2  1  0.11670  0.11670  0.62887  1
 O  O3  1  0.43342  0.82296  0.90778  1
 O  O4  1  0.59481  0.59481  0.64528  1
 O  O5  1  0.17704  0.56658  0.09222  1
 O  O6  1  0.16949  0.16949  0.06027  1
 O  O7  1  0.56658  0.17704  0.09222  1
 O  O8  1  0.40519  0.40519  0.35472  1
 O  O9  1  0.83051  0.83051  0.93973  1
 O  O10  1  0.58511  0.16699  0.67230  1
 O  O11  1  0.82296  0.43342  0.90778  1
 O  O12  1  0.41489  0.83301  0.32770  1
 O  O13  1  0.16699  0.58511  0.67230  1
 O  O14  1  0.83301  0.41489  0.32770  1
 Sb  Sb1  1  0.50000  0.50000  0.50000  1
 Sb  Sb2  1  0.50000  -0.00000  0.00000  1
 Sb  Sb3  1  -0.00000  0.50000  -0.00000  1
