CIF file written using JARVIS-Tools package.
data_Dy4CdS7
_symmetry_space_group_name_H-M  'Cm'
_cell_length_a       6.61537
_cell_length_b       6.61537
_cell_length_c       11.5868
_cell_angle_alpha    75.173
_cell_angle_beta     75.173
_cell_angle_gamma    33.6238

_symmetry_Int_Tables_number  8
_chemical_formula_structural  Dy4CdS7
_chemical_formula_sum  Dy4CdS7
_cell_volume  270.5662944186965
_cell_formula_units_Z  1
loop_
  _symmetry_equiv_pos_site_id
 _symmetry_equiv_pos_as_xyz
 1  'x, y, z'
loop_
 _atom_site_type_symbol
 _atom_site_label
 _atom_site_symmetry_multiplicity
 _atom_site_fract_x
 _atom_site_fract_y
 _atom_site_fract_z
 _atom_site_fract_occupancy
 Cd  Cd1  1  0.88243  0.88243  0.41937  1
 Dy  Dy1  1  0.70056  0.70056  0.19086  1
 Dy  Dy2  1  0.31489  0.31489  0.79099  1
 Dy  Dy3  1  0.00658  0.00658  0.00249  1
 Dy  Dy4  1  0.11072  0.11072  0.57162  1
 S  S1  1  0.73524  0.73524  0.64608  1
 S  S2  1  0.25424  0.25424  0.34903  1
 S  S3  1  0.34589  0.34589  0.04720  1
 S  S4  1  0.66612  0.66612  0.94538  1
 S  S5  1  0.04090  0.04090  0.21984  1
 S  S6  1  0.96490  0.96490  0.78826  1
 S  S7  1  0.47754  0.47754  0.52889  1
