CIF file written using JARVIS-Tools package.
data_Be4CrMo
_symmetry_space_group_name_H-M  'P-3m1'
_cell_length_a       4.33213
_cell_length_b       4.33212
_cell_length_c       7.08201
_cell_angle_alpha    90
_cell_angle_beta     90
_cell_angle_gamma    120

_symmetry_Int_Tables_number  164
_chemical_formula_structural  Be4CrMo
_chemical_formula_sum  Be8Cr2Mo2
_cell_volume  115.10366887613273
_cell_formula_units_Z  2
loop_
  _symmetry_equiv_pos_site_id
 _symmetry_equiv_pos_as_xyz
 1  'x, y, z'
loop_
 _atom_site_type_symbol
 _atom_site_label
 _atom_site_symmetry_multiplicity
 _atom_site_fract_x
 _atom_site_fract_y
 _atom_site_fract_z
 _atom_site_fract_occupancy
 Be  Be1  1  0.00000  0.00000  0.50000  1
 Be  Be2  1  0.00000  0.00000  0.00000  1
 Be  Be3  1  0.83004  0.16996  0.25972  1
 Be  Be4  1  0.83004  0.66008  0.25972  1
 Be  Be5  1  0.33992  0.16996  0.25972  1
 Be  Be6  1  0.16996  0.83004  0.74028  1
 Be  Be7  1  0.16996  0.33992  0.74028  1
 Be  Be8  1  0.66008  0.83004  0.74028  1
 Cr  Cr1  1  0.33333  0.66667  0.43958  1
 Cr  Cr2  1  0.66667  0.33333  0.56042  1
 Mo  Mo1  1  0.66667  0.33333  0.93337  1
 Mo  Mo2  1  0.33333  0.66667  0.06663  1
