CIF file written using JARVIS-Tools package.
data_Y5Tl3
_symmetry_space_group_name_H-M  'P6_3/mcm'
_cell_length_a       8.97798
_cell_length_b       8.97798
_cell_length_c       6.64708
_cell_angle_alpha    90
_cell_angle_beta     90
_cell_angle_gamma    120

_symmetry_Int_Tables_number  193
_chemical_formula_structural  Y5Tl3
_chemical_formula_sum  Y0Tl6
_cell_volume  464.001069957391
_cell_formula_units_Z  2
loop_
  _symmetry_equiv_pos_site_id
 _symmetry_equiv_pos_as_xyz
 1  'x, y, z'
loop_
 _atom_site_type_symbol
 _atom_site_label
 _atom_site_symmetry_multiplicity
 _atom_site_fract_x
 _atom_site_fract_y
 _atom_site_fract_z
 _atom_site_fract_occupancy
 Tl  Tl1  1  0.40085  0.40085  0.75000  1
 Tl  Tl2  1  0.59915  0.00000  0.75000  1
 Tl  Tl3  1  -0.00000  0.59915  0.75000  1
 Tl  Tl4  1  0.59915  0.59915  0.25000  1
 Tl  Tl5  1  0.40085  0.00000  0.25000  1
 Tl  Tl6  1  0.00000  0.40085  0.25000  1
 Y  Y1  1  0.66667  0.33333  0.00000  1
 Y  Y2  1  0.33333  0.66667  0.00000  1
 Y  Y3  1  0.33333  0.66667  0.50000  1
 Y  Y4  1  0.66667  0.33333  0.50000  1
 Y  Y5  1  0.76279  0.76279  0.75000  1
 Y  Y6  1  0.23721  0.00000  0.75000  1
 Y  Y7  1  -0.00000  0.23721  0.75000  1
 Y  Y8  1  0.23721  0.23721  0.25000  1
 Y  Y9  1  0.76279  0.00000  0.25000  1
 Y  Y10  1  0.00000  0.76279  0.25000  1
