CIF file written using JARVIS-Tools package.
data_Ca2Al2SiO7
_symmetry_space_group_name_H-M  'P2_1'
_cell_length_a       7.71153
_cell_length_b       5.06107
_cell_length_c       7.73423
_cell_angle_alpha    89.2342
_cell_angle_beta     90
_cell_angle_gamma    90

_symmetry_Int_Tables_number  4
_chemical_formula_structural  Ca2Al2SiO7
_chemical_formula_sum  Ca4Al4Si2O4
_cell_volume  301.82932562745435
_cell_formula_units_Z  2
loop_
  _symmetry_equiv_pos_site_id
 _symmetry_equiv_pos_as_xyz
 1  'x, y, z'
loop_
 _atom_site_type_symbol
 _atom_site_label
 _atom_site_symmetry_multiplicity
 _atom_site_fract_x
 _atom_site_fract_y
 _atom_site_fract_z
 _atom_site_fract_occupancy
 Al  Al1  1  0.50032  0.00209  0.25614  1
 Al  Al2  1  0.00032  0.99791  0.74386  1
 Al  Al3  1  0.14161  0.96274  0.10580  1
 Al  Al4  1  0.64161  0.03726  0.89420  1
 Ca  Ca1  1  0.34674  0.52089  0.92776  1
 Ca  Ca2  1  0.84674  0.47911  0.07224  1
 Ca  Ca3  1  0.66620  0.50355  0.60235  1
 Ca  Ca4  1  0.16620  0.49645  0.39765  1
 O  O1  1  0.48295  0.18068  0.75431  1
 O  O2  1  0.85678  0.26592  0.39654  1
 O  O3  1  0.41794  0.20269  0.42506  1
 O  O4  1  0.91794  0.79731  0.57494  1
 O  O5  1  0.59283  0.19423  0.09065  1
 O  O6  1  0.98295  0.81932  0.24569  1
 O  O7  1  0.33278  0.80087  0.17870  1
 O  O8  1  0.14185  0.30348  0.11187  1
 O  O9  1  0.66507  0.80872  0.35634  1
 O  O10  1  0.16507  0.19128  0.64366  1
 O  O11  1  0.09283  0.80577  0.90935  1
 O  O12  1  0.64185  0.69652  0.88813  1
 O  O13  1  0.83278  0.19913  0.82130  1
 O  O14  1  0.35678  0.73408  0.60346  1
 Si  Si1  1  0.35494  0.05257  0.60691  1
 Si  Si2  1  0.85494  0.94743  0.39309  1
