CIF file written using JARVIS-Tools package.
data_Ba6Ho2Al2Rh2O15
_symmetry_space_group_name_H-M  'Amm2'
_cell_length_a       5.89736
_cell_length_b       5.89736
_cell_length_c       14.7934
_cell_angle_alpha    90
_cell_angle_beta     90
_cell_angle_gamma    119.955

_symmetry_Int_Tables_number  38
_chemical_formula_structural  Ba6Ho2Al2Rh2O15
_chemical_formula_sum  Ba6Ho2Al2Rh2O5
_cell_volume  445.76867077774097
_cell_formula_units_Z  1
loop_
  _symmetry_equiv_pos_site_id
 _symmetry_equiv_pos_as_xyz
 1  'x, y, z'
loop_
 _atom_site_type_symbol
 _atom_site_label
 _atom_site_symmetry_multiplicity
 _atom_site_fract_x
 _atom_site_fract_y
 _atom_site_fract_z
 _atom_site_fract_occupancy
 Al  Al1  1  0.66354  0.33646  0.88556  1
 Al  Al2  1  0.66354  0.33646  0.11444  1
 Ba  Ba1  1  0.98631  0.01369  0.50000  1
 Ba  Ba2  1  0.66076  0.33924  0.35301  1
 Ba  Ba3  1  0.32975  0.67025  0.18748  1
 Ba  Ba4  1  0.01415  0.98585  0.00000  1
 Ba  Ba5  1  0.32975  0.67025  0.81252  1
 Ba  Ba6  1  0.66076  0.33924  0.64699  1
 Ho  Ho1  1  0.99479  0.00521  0.24810  1
 Ho  Ho2  1  0.99479  0.00521  0.75190  1
 O  O1  1  0.34828  0.16224  0.83852  1
 O  O2  1  0.83776  0.65172  0.16148  1
 O  O3  1  0.00284  0.52906  0.50000  1
 O  O4  1  0.34828  0.16224  0.16148  1
 O  O5  1  0.83776  0.65172  0.83852  1
 O  O6  1  0.83406  0.16594  0.86199  1
 O  O7  1  0.83406  0.16594  0.13801  1
 O  O8  1  0.17070  0.35178  0.66092  1
 O  O9  1  0.17070  0.35178  0.33908  1
 O  O10  1  0.16758  0.83242  0.66884  1
 O  O11  1  0.64822  0.82930  0.66092  1
 O  O12  1  0.16758  0.83242  0.33116  1
 O  O13  1  0.61848  0.38152  0.00000  1
 O  O14  1  0.64822  0.82930  0.33908  1
 O  O15  1  0.47094  0.99716  0.50000  1
 Rh  Rh1  1  0.32368  0.67632  0.41600  1
 Rh  Rh2  1  0.32368  0.67632  0.58400  1
