CIF file written using JARVIS-Tools package.
data_Ba2SrB18
_symmetry_space_group_name_H-M  'P4/mmm'
_cell_length_a       4.24583
_cell_length_b       4.24583
_cell_length_c       12.74
_cell_angle_alpha    90
_cell_angle_beta     90
_cell_angle_gamma    90

_symmetry_Int_Tables_number  123
_chemical_formula_structural  Ba2SrB18
_chemical_formula_sum  Ba2SrB8
_cell_volume  229.66566064214962
_cell_formula_units_Z  1
loop_
  _symmetry_equiv_pos_site_id
 _symmetry_equiv_pos_as_xyz
 1  'x, y, z'
loop_
 _atom_site_type_symbol
 _atom_site_label
 _atom_site_symmetry_multiplicity
 _atom_site_fract_x
 _atom_site_fract_y
 _atom_site_fract_z
 _atom_site_fract_occupancy
 B  B1  1  0.50000  0.20384  0.83617  1
 B  B2  1  0.20384  0.50000  0.16383  1
 B  B3  1  0.20435  0.50000  0.50000  1
 B  B4  1  0.20384  0.50000  0.83617  1
 B  B5  1  0.50000  0.50000  0.26319  1
 B  B6  1  0.50000  0.50000  0.59903  1
 B  B7  1  0.50000  0.50000  0.93355  1
 B  B8  1  0.50000  0.20384  0.16383  1
 B  B9  1  0.50000  0.20435  0.50000  1
 B  B10  1  0.79565  0.50000  0.50000  1
 B  B11  1  0.79616  0.50000  0.83617  1
 B  B12  1  0.50000  0.50000  0.40097  1
 B  B13  1  0.50000  0.50000  0.73681  1
 B  B14  1  0.50000  0.79616  0.16383  1
 B  B15  1  0.50000  0.79565  0.50000  1
 B  B16  1  0.50000  0.79616  0.83617  1
 B  B17  1  0.79616  0.50000  0.16383  1
 B  B18  1  0.50000  0.50000  0.06645  1
 Ba  Ba1  1  0.00000  0.00000  0.66799  1
 Ba  Ba2  1  0.00000  0.00000  0.33201  1
 Sr  Sr1  1  0.00000  0.00000  0.00000  1
