CIF file written using JARVIS-Tools package.
data_CaAlF
_symmetry_space_group_name_H-M  'P4mm'
_cell_length_a       3.39269
_cell_length_b       3.39269
_cell_length_c       7.12002
_cell_angle_alpha    90
_cell_angle_beta     90
_cell_angle_gamma    90

_symmetry_Int_Tables_number  99
_chemical_formula_structural  CaAlF
_chemical_formula_sum  CaAlF
_cell_volume  81.95372074207533
_cell_formula_units_Z  1
loop_
  _symmetry_equiv_pos_site_id
 _symmetry_equiv_pos_as_xyz
 1  'x, y, z'
loop_
 _atom_site_type_symbol
 _atom_site_label
 _atom_site_symmetry_multiplicity
 _atom_site_fract_x
 _atom_site_fract_y
 _atom_site_fract_z
 _atom_site_fract_occupancy
 Al  Al1  1  0.00000  0.00000  0.26032  1
 Ca  Ca1  1  0.00000  0.00000  0.69900  1
 F  F1  1  0.00000  0.00000  0.00776  1
