CIF file written using JARVIS-Tools package.
data_Ba2FeCoClF7
_symmetry_space_group_name_H-M  'P2_1/m'
_cell_length_a       5.78577
_cell_length_b       7.61608
_cell_length_c       8.86393
_cell_angle_alpha    72.6222
_cell_angle_beta     90
_cell_angle_gamma    90

_symmetry_Int_Tables_number  11
_chemical_formula_structural  Ba2FeCoClF7
_chemical_formula_sum  Ba4Fe2Co2Cl2F4
_cell_volume  372.76017550273906
_cell_formula_units_Z  2
loop_
  _symmetry_equiv_pos_site_id
 _symmetry_equiv_pos_as_xyz
 1  'x, y, z'
loop_
 _atom_site_type_symbol
 _atom_site_label
 _atom_site_symmetry_multiplicity
 _atom_site_fract_x
 _atom_site_fract_y
 _atom_site_fract_z
 _atom_site_fract_occupancy
 Ba  Ba1  1  0.25000  0.67683  0.58672  1
 Ba  Ba2  1  0.75000  0.32317  0.41328  1
 Ba  Ba3  1  0.25000  0.70551  0.06824  1
 Ba  Ba4  1  0.75000  0.29449  0.93176  1
 Cl  Cl1  1  0.25000  0.11972  0.47726  1
 Cl  Cl2  1  0.75000  0.88028  0.52274  1
 Co  Co1  1  0.25000  0.17795  0.18377  1
 Co  Co2  1  0.75000  0.82205  0.81623  1
 F  F1  1  0.25000  0.24303  0.93475  1
 F  F2  1  -0.00741  0.64059  0.34401  1
 F  F3  1  0.00950  0.00010  0.82273  1
 F  F4  1  0.50950  -0.00010  0.17727  1
 F  F5  1  0.99050  -0.00010  0.17727  1
 F  F6  1  0.75000  0.75697  0.06525  1
 F  F7  1  0.00659  0.37491  0.15972  1
 F  F8  1  0.00741  0.35941  0.65599  1
 F  F9  1  0.99341  0.62509  0.84028  1
 F  F10  1  0.49341  0.37491  0.15972  1
 F  F11  1  0.49050  0.00010  0.82273  1
 F  F12  1  0.50741  0.64059  0.34401  1
 F  F13  1  0.50659  0.62509  0.84028  1
 F  F14  1  0.49259  0.35941  0.65599  1
 Fe  Fe1  1  0.75000  0.82390  0.26789  1
 Fe  Fe2  1  0.25000  0.17610  0.73211  1
