CIF file written using JARVIS-Tools package.
data_Ba2TiFeO6
_symmetry_space_group_name_H-M  'P3m1'
_cell_length_a       5.68164
_cell_length_b       5.68164
_cell_length_c       13.8502
_cell_angle_alpha    90
_cell_angle_beta     90
_cell_angle_gamma    120

_symmetry_Int_Tables_number  156
_chemical_formula_structural  Ba2TiFeO6
_chemical_formula_sum  Ba6Ti3Fe3O8
_cell_volume  387.1990269345013
_cell_formula_units_Z  3
loop_
  _symmetry_equiv_pos_site_id
 _symmetry_equiv_pos_as_xyz
 1  'x, y, z'
loop_
 _atom_site_type_symbol
 _atom_site_label
 _atom_site_symmetry_multiplicity
 _atom_site_fract_x
 _atom_site_fract_y
 _atom_site_fract_z
 _atom_site_fract_occupancy
 Ba  Ba1  1  0.66667  0.33333  0.58989  1
 Ba  Ba2  1  0.33333  0.66667  0.40768  1
 Ba  Ba3  1  0.33333  0.66667  0.09032  1
 Ba  Ba4  1  0.66667  0.33333  0.90400  1
 Ba  Ba5  1  0.00000  0.00000  0.74698  1
 Ba  Ba6  1  0.00000  0.00000  0.25115  1
 Fe  Fe1  1  0.33333  0.66667  0.84008  1
 Fe  Fe2  1  0.66667  0.33333  0.34308  1
 Fe  Fe3  1  0.33333  0.66667  0.65651  1
 O  O1  1  0.83447  0.66893  0.08063  1
 O  O2  1  0.33405  0.16703  0.42145  1
 O  O3  1  0.83297  0.16703  0.42145  1
 O  O4  1  0.51851  0.48149  0.25502  1
 O  O5  1  0.65935  0.82967  0.58441  1
 O  O6  1  0.17033  0.82967  0.58441  1
 O  O7  1  0.17033  0.34065  0.58441  1
 O  O8  1  0.83297  0.66595  0.42145  1
 O  O9  1  0.33107  0.16553  0.08063  1
 O  O10  1  0.04413  0.52207  0.75039  1
 O  O11  1  0.66302  0.83151  0.91731  1
 O  O12  1  0.47793  0.95587  0.75039  1
 O  O13  1  0.47793  0.52207  0.75039  1
 O  O14  1  0.83447  0.16553  0.08063  1
 O  O15  1  0.51851  0.03702  0.25502  1
 O  O16  1  0.16849  0.33698  0.91731  1
 O  O17  1  0.16849  0.83151  0.91731  1
 O  O18  1  0.96298  0.48149  0.25502  1
 Ti  Ti1  1  0.00000  0.00000  0.99405  1
 Ti  Ti2  1  0.00000  0.00000  0.49571  1
 Ti  Ti3  1  0.66667  0.33333  0.15411  1
