CIF file written using JARVIS-Tools package.
data_HfO3
_symmetry_space_group_name_H-M  'P1'
_cell_length_a       4.7295
_cell_length_b       3.05846
_cell_length_c       3.77846
_cell_angle_alpha    67.9017
_cell_angle_beta     124.616
_cell_angle_gamma    105.051

_symmetry_Int_Tables_number  1
_chemical_formula_structural  HfO3
_chemical_formula_sum  HfO3
_cell_volume  41.59996893722551
_cell_formula_units_Z  1
loop_
  _symmetry_equiv_pos_site_id
 _symmetry_equiv_pos_as_xyz
 1  'x, y, z'
loop_
 _atom_site_type_symbol
 _atom_site_label
 _atom_site_symmetry_multiplicity
 _atom_site_fract_x
 _atom_site_fract_y
 _atom_site_fract_z
 _atom_site_fract_occupancy
 Hf  Hf1  1  0.06360  0.77834  0.06933  1
 O  O1  1  0.46031  0.40677  0.18615  1
 O  O2  1  0.05163  0.07455  0.46777  1
 O  O3  1  0.67959  0.29933  0.68651  1
