CIF file written using JARVIS-Tools package.
data_BI
_symmetry_space_group_name_H-M  'Cm'
_cell_length_a       5.98939
_cell_length_b       6.00561
_cell_length_c       4.19272
_cell_angle_alpha    58.1864
_cell_angle_beta     121.647
_cell_angle_gamma    107.507

_symmetry_Int_Tables_number  8
_chemical_formula_structural  BI
_chemical_formula_sum  B2I2
_cell_volume  109.0365788948167
_cell_formula_units_Z  2
loop_
  _symmetry_equiv_pos_site_id
 _symmetry_equiv_pos_as_xyz
 1  'x, y, z'
loop_
 _atom_site_type_symbol
 _atom_site_label
 _atom_site_symmetry_multiplicity
 _atom_site_fract_x
 _atom_site_fract_y
 _atom_site_fract_z
 _atom_site_fract_occupancy
 B  B1  1  0.89307  -0.00548  0.95856  1
 B  B2  1  0.69016  0.19745  0.54225  1
 I  I1  1  0.81796  0.56816  0.09013  1
 I  I2  1  0.32018  0.07032  0.09025  1
