CIF file written using JARVIS-Tools package.
data_Ag3AsO4
_symmetry_space_group_name_H-M  'R3c'
_cell_length_a       6.18183
_cell_length_b       6.18183
_cell_length_c       6.18183
_cell_angle_alpha    90.4549
_cell_angle_beta     90.4549
_cell_angle_gamma    90.4549

_symmetry_Int_Tables_number  161
_chemical_formula_structural  Ag3AsO4
_chemical_formula_sum  Ag6As2O8
_cell_volume  236.2160968156371
_cell_formula_units_Z  2
loop_
  _symmetry_equiv_pos_site_id
 _symmetry_equiv_pos_as_xyz
 1  'x, y, z'
loop_
 _atom_site_type_symbol
 _atom_site_label
 _atom_site_symmetry_multiplicity
 _atom_site_fract_x
 _atom_site_fract_y
 _atom_site_fract_z
 _atom_site_fract_occupancy
 Ag  Ag1  1  0.70857  0.00619  0.50178  1
 Ag  Ag2  1  0.00619  0.50178  0.70857  1
 Ag  Ag3  1  0.50178  0.70857  0.00619  1
 Ag  Ag4  1  0.20857  0.00178  0.50619  1
 Ag  Ag5  1  0.50619  0.20857  0.00178  1
 Ag  Ag6  1  0.00178  0.50619  0.20857  1
 As  As1  1  0.50131  0.50131  0.50131  1
 As  As2  1  0.00131  0.00131  0.00131  1
 O  O1  1  0.67684  0.34282  0.65448  1
 O  O2  1  0.65448  0.67684  0.34282  1
 O  O3  1  0.33910  0.33910  0.33910  1
 O  O4  1  0.34282  0.65448  0.67684  1
 O  O5  1  0.83910  0.83910  0.83910  1
 O  O6  1  0.17684  0.15448  0.84282  1
 O  O7  1  0.15448  0.84282  0.17684  1
 O  O8  1  0.84282  0.17684  0.15448  1
