CIF file written using JARVIS-Tools package.
data_Nb4O9
_symmetry_space_group_name_H-M  'P1'
_cell_length_a       5.03248
_cell_length_b       5.56585
_cell_length_c       6.96633
_cell_angle_alpha    106.788
_cell_angle_beta     108.917
_cell_angle_gamma    91.6425

_symmetry_Int_Tables_number  1
_chemical_formula_structural  Nb4O9
_chemical_formula_sum  Nb4O9
_cell_volume  175.10183835176682
_cell_formula_units_Z  1
loop_
  _symmetry_equiv_pos_site_id
 _symmetry_equiv_pos_as_xyz
 1  'x, y, z'
loop_
 _atom_site_type_symbol
 _atom_site_label
 _atom_site_symmetry_multiplicity
 _atom_site_fract_x
 _atom_site_fract_y
 _atom_site_fract_z
 _atom_site_fract_occupancy
 Nb  Nb1  1  0.36862  0.25834  0.27925  1
 Nb  Nb2  1  0.15724  0.21344  0.73664  1
 Nb  Nb3  1  0.60161  0.72329  0.70199  1
 Nb  Nb4  1  0.88996  0.75320  0.26512  1
 O  O1  1  0.12709  0.12961  0.41275  1
 O  O2  1  0.25744  0.64570  0.40639  1
 O  O3  1  0.87172  0.87893  0.59552  1
 O  O4  1  0.87208  0.71765  0.97416  1
 O  O5  1  0.09870  0.25697  0.00251  1
 O  O6  1  0.31045  0.54657  0.77290  1
 O  O7  1  0.56752  0.97916  0.24130  1
 O  O8  1  0.66529  0.46489  0.23021  1
 O  O9  1  0.48628  0.06027  0.79195  1
