CIF file written using JARVIS-Tools package.
data_B2I
_symmetry_space_group_name_H-M  'Cm'
_cell_length_a       7.02654
_cell_length_b       4.12981
_cell_length_c       3.14672
_cell_angle_alpha    67.5015
_cell_angle_beta     116.534
_cell_angle_gamma    71.7746

_symmetry_Int_Tables_number  8
_chemical_formula_structural  B2I
_chemical_formula_sum  B2I
_cell_volume  61.204042484384374
_cell_formula_units_Z  1
loop_
  _symmetry_equiv_pos_site_id
 _symmetry_equiv_pos_as_xyz
 1  'x, y, z'
loop_
 _atom_site_type_symbol
 _atom_site_label
 _atom_site_symmetry_multiplicity
 _atom_site_fract_x
 _atom_site_fract_y
 _atom_site_fract_z
 _atom_site_fract_occupancy
 B  B1  1  0.38882  0.27101  0.67345  1
 B  B2  1  0.45644  0.20309  0.27498  1
 I  I1  1  0.92537  0.91803  0.88625  1
