CIF file written using JARVIS-Tools package.
data_Ag4Hg4S4BrCl3
_symmetry_space_group_name_H-M  'P1'
_cell_length_a       4.52309
_cell_length_b       6.90168
_cell_length_c       12.9927
_cell_angle_alpha    89.7056
_cell_angle_beta     89.9302
_cell_angle_gamma    89.9984

_symmetry_Int_Tables_number  1
_chemical_formula_structural  Ag4Hg4S4BrCl3
_chemical_formula_sum  Ag4Hg4S4BrCl3
_cell_volume  405.5876301242013
_cell_formula_units_Z  1
loop_
  _symmetry_equiv_pos_site_id
 _symmetry_equiv_pos_as_xyz
 1  'x, y, z'
loop_
 _atom_site_type_symbol
 _atom_site_label
 _atom_site_symmetry_multiplicity
 _atom_site_fract_x
 _atom_site_fract_y
 _atom_site_fract_z
 _atom_site_fract_occupancy
 Ag  Ag1  1  -0.00086  0.79141  0.46029  1
 Ag  Ag2  1  0.00095  0.20878  0.54175  1
 Ag  Ag3  1  0.00121  0.29182  0.04217  1
 Ag  Ag4  1  0.99870  0.70047  0.95145  1
 Br  Br1  1  0.00065  0.87333  0.13351  1
 Cl  Cl1  1  -0.00054  0.13798  0.86305  1
 Cl  Cl2  1  0.99971  0.37031  0.36536  1
 Cl  Cl3  1  0.00026  0.62908  0.63671  1
 Hg  Hg1  1  0.49999  0.62313  0.24479  1
 Hg  Hg2  1  0.50002  0.37483  0.75618  1
 Hg  Hg3  1  0.50030  0.12547  0.26260  1
 Hg  Hg4  1  0.49968  0.87651  0.74013  1
 S  S1  1  0.49953  0.85776  0.38518  1
 S  S2  1  0.50054  0.14069  0.61687  1
 S  S3  1  0.50075  0.35981  0.12129  1
 S  S4  1  0.49912  0.63860  0.87867  1
