CIF file written using JARVIS-Tools package.
data_Ca5CdN4
_symmetry_space_group_name_H-M  'Pmmn'
_cell_length_a       8.08713
_cell_length_b       7.55143
_cell_length_c       5.89702
_cell_angle_alpha    90
_cell_angle_beta     90
_cell_angle_gamma    90

_symmetry_Int_Tables_number  59
_chemical_formula_structural  Ca5CdN4
_chemical_formula_sum  Ca0Cd2N8
_cell_volume  360.1273046955182
_cell_formula_units_Z  2
loop_
  _symmetry_equiv_pos_site_id
 _symmetry_equiv_pos_as_xyz
 1  'x, y, z'
loop_
 _atom_site_type_symbol
 _atom_site_label
 _atom_site_symmetry_multiplicity
 _atom_site_fract_x
 _atom_site_fract_y
 _atom_site_fract_z
 _atom_site_fract_occupancy
 Ca  Ca1  1  0.55074  0.50298  0.24631  1
 Ca  Ca2  1  0.94926  0.50298  0.24631  1
 Ca  Ca3  1  0.55074  0.99702  0.24631  1
 Ca  Ca4  1  0.94926  0.99702  0.24631  1
 Ca  Ca5  1  0.25000  0.25000  0.28815  1
 Ca  Ca6  1  0.44926  0.49702  0.75369  1
 Ca  Ca7  1  0.44926  0.00298  0.75369  1
 Ca  Ca8  1  0.05074  0.00298  0.75369  1
 Ca  Ca9  1  0.75000  0.75000  0.71185  1
 Ca  Ca10  1  0.05074  0.49702  0.75369  1
 Cd  Cd1  1  0.75000  0.25000  0.71153  1
 Cd  Cd2  1  0.25000  0.75000  0.28847  1
 N  N1  1  0.99612  0.75000  0.49990  1
 N  N2  1  0.49612  0.25000  0.50010  1
 N  N3  1  0.75000  0.99883  0.94506  1
 N  N4  1  0.75000  0.50117  0.94506  1
 N  N5  1  0.25000  0.00117  0.05494  1
 N  N6  1  0.25000  0.49883  0.05494  1
 N  N7  1  0.50388  0.75000  0.49990  1
 N  N8  1  0.00388  0.25000  0.50010  1
