CIF file written using JARVIS-Tools package.
data_TiCrCuS4
_symmetry_space_group_name_H-M  'Pmmn'
_cell_length_a       5.86284
_cell_length_b       6.82601
_cell_length_c       12.3251
_cell_angle_alpha    90
_cell_angle_beta     90
_cell_angle_gamma    90

_symmetry_Int_Tables_number  59
_chemical_formula_structural  TiCrCuS4
_chemical_formula_sum  Ti4Cr4Cu4S6
_cell_volume  493.24849186124754
_cell_formula_units_Z  4
loop_
  _symmetry_equiv_pos_site_id
 _symmetry_equiv_pos_as_xyz
 1  'x, y, z'
loop_
 _atom_site_type_symbol
 _atom_site_label
 _atom_site_symmetry_multiplicity
 _atom_site_fract_x
 _atom_site_fract_y
 _atom_site_fract_z
 _atom_site_fract_occupancy
 Cr  Cr1  1  0.99815  0.00000  0.24706  1
 Cr  Cr2  1  0.99815  0.00000  0.75294  1
 Cr  Cr3  1  0.00185  0.50000  0.25294  1
 Cr  Cr4  1  0.00185  0.50000  0.74706  1
 Cu  Cu1  1  0.96704  0.50000  0.00000  1
 Cu  Cu2  1  0.36011  0.00000  0.00000  1
 Cu  Cu3  1  0.03296  0.00000  0.50000  1
 Cu  Cu4  1  0.63989  0.50000  0.50000  1
 S  S1  1  0.16108  0.75257  0.86556  1
 S  S2  1  0.16108  0.24743  0.13444  1
 S  S3  1  0.16108  0.24743  0.86556  1
 S  S4  1  0.32720  0.00000  0.36363  1
 S  S5  1  0.16108  0.75257  0.13444  1
 S  S6  1  0.67280  0.50000  0.13637  1
 S  S7  1  0.83892  0.25257  0.36556  1
 S  S8  1  0.83892  0.74743  0.63444  1
 S  S9  1  0.83892  0.25257  0.63444  1
 S  S10  1  0.67280  0.50000  0.86363  1
 S  S11  1  0.66503  0.00000  0.86468  1
 S  S12  1  0.33497  0.50000  0.36468  1
 S  S13  1  0.33497  0.50000  0.63532  1
 S  S14  1  0.83892  0.74743  0.36556  1
 S  S15  1  0.32720  0.00000  0.63637  1
 S  S16  1  0.66503  0.00000  0.13532  1
 Ti  Ti1  1  0.50000  0.25000  0.75000  1
 Ti  Ti2  1  0.50000  0.75000  0.25000  1
 Ti  Ti3  1  0.50000  0.75000  0.75000  1
 Ti  Ti4  1  0.50000  0.25000  0.25000  1
