CIF file written using JARVIS-Tools package.
data_HCl2
_symmetry_space_group_name_H-M  'Pmmm'
_cell_length_a       6.56201
_cell_length_b       3.69364
_cell_length_c       2.65747
_cell_angle_alpha    90
_cell_angle_beta     90
_cell_angle_gamma    90

_symmetry_Int_Tables_number  47
_chemical_formula_structural  HCl2
_chemical_formula_sum  HCl2
_cell_volume  64.41099373783155
_cell_formula_units_Z  1
loop_
  _symmetry_equiv_pos_site_id
 _symmetry_equiv_pos_as_xyz
 1  'x, y, z'
loop_
 _atom_site_type_symbol
 _atom_site_label
 _atom_site_symmetry_multiplicity
 _atom_site_fract_x
 _atom_site_fract_y
 _atom_site_fract_z
 _atom_site_fract_occupancy
 Cl  Cl1  1  0.23826  0.11734  0.00000  1
 Cl  Cl2  1  0.76174  0.11734  0.00000  1
 H  H1  1  0.00000  0.11732  0.00000  1
