CIF file written using JARVIS-Tools package.
data_HCl2
_symmetry_space_group_name_H-M  'P2/m'
_cell_length_a       3.64632
_cell_length_b       2.64049
_cell_length_c       5.82917
_cell_angle_alpha    90
_cell_angle_beta     85.7533
_cell_angle_gamma    90

_symmetry_Int_Tables_number  10
_chemical_formula_structural  HCl2
_chemical_formula_sum  HCl2
_cell_volume  55.96949557698782
_cell_formula_units_Z  1
loop_
  _symmetry_equiv_pos_site_id
 _symmetry_equiv_pos_as_xyz
 1  'x, y, z'
loop_
 _atom_site_type_symbol
 _atom_site_label
 _atom_site_symmetry_multiplicity
 _atom_site_fract_x
 _atom_site_fract_y
 _atom_site_fract_z
 _atom_site_fract_occupancy
 Cl  Cl1  1  -0.31270  0.00000  -0.10789  1
 Cl  Cl2  1  0.24596  0.00000  0.37457  1
 H  H1  1  0.46675  0.00000  0.13332  1
