CIF file written using JARVIS-Tools package.
data_KSn
_symmetry_space_group_name_H-M  'P1'
_cell_length_a       4.58389
_cell_length_b       6.63927
_cell_length_c       6.64215
_cell_angle_alpha    102.397
_cell_angle_beta     69.9147
_cell_angle_gamma    69.586

_symmetry_Int_Tables_number  1
_chemical_formula_structural  KSn
_chemical_formula_sum  K2Sn2
_cell_volume  164.58154295791968
_cell_formula_units_Z  2
loop_
  _symmetry_equiv_pos_site_id
 _symmetry_equiv_pos_as_xyz
 1  'x, y, z'
loop_
 _atom_site_type_symbol
 _atom_site_label
 _atom_site_symmetry_multiplicity
 _atom_site_fract_x
 _atom_site_fract_y
 _atom_site_fract_z
 _atom_site_fract_occupancy
 K  K1  1  0.07826  0.93995  0.89352  1
 K  K2  1  0.07962  0.56449  0.26842  1
 Sn  Sn1  1  0.86038  0.47145  0.80012  1
 Sn  Sn2  1  0.61193  0.22100  0.54876  1
