CIF file written using JARVIS-Tools package.
data_BOsO4
_symmetry_space_group_name_H-M  'I-4'
_cell_length_a       4.65892
_cell_length_b       4.65892
_cell_length_c       4.65892
_cell_angle_alpha    109.386
_cell_angle_beta     109.386
_cell_angle_gamma    109.641

_symmetry_Int_Tables_number  82
_chemical_formula_structural  BOsO4
_chemical_formula_sum  BOsO4
_cell_volume  77.84510831655254
_cell_formula_units_Z  1
loop_
  _symmetry_equiv_pos_site_id
 _symmetry_equiv_pos_as_xyz
 1  'x, y, z'
loop_
 _atom_site_type_symbol
 _atom_site_label
 _atom_site_symmetry_multiplicity
 _atom_site_fract_x
 _atom_site_fract_y
 _atom_site_fract_z
 _atom_site_fract_occupancy
 B  B1  1  0.25000  0.75000  0.50000  1
 O  O1  1  0.60071  0.02567  0.80079  1
 O  O2  1  0.20008  0.39929  0.42495  1
 O  O3  1  0.22487  0.79992  0.19921  1
 O  O4  1  -0.02567  0.77513  0.57505  1
 Os  Os1  1  0.00000  0.00000  0.00000  1
