CIF file written using JARVIS-Tools package.
data_ZnAgN
_symmetry_space_group_name_H-M  'Cmce'
_cell_length_a       5.4684
_cell_length_b       6.41452
_cell_length_c       6.99746
_cell_angle_alpha    90
_cell_angle_beta     129.779
_cell_angle_gamma    90

_symmetry_Int_Tables_number  64
_chemical_formula_structural  ZnAgN
_chemical_formula_sum  Zn4Ag4N4
_cell_volume  188.63236171329626
_cell_formula_units_Z  4
loop_
  _symmetry_equiv_pos_site_id
 _symmetry_equiv_pos_as_xyz
 1  'x, y, z'
loop_
 _atom_site_type_symbol
 _atom_site_label
 _atom_site_symmetry_multiplicity
 _atom_site_fract_x
 _atom_site_fract_y
 _atom_site_fract_z
 _atom_site_fract_occupancy
 Ag  Ag1  1  0.00002  0.25000  0.82700  1
 Ag  Ag2  1  -0.00002  0.75000  0.67300  1
 Ag  Ag3  1  -0.00002  0.75000  0.17300  1
 Ag  Ag4  1  0.00002  0.25000  0.32700  1
 N  N1  1  0.49998  0.68767  0.88683  1
 N  N2  1  0.50002  0.18767  0.61317  1
 N  N3  1  0.50002  0.31233  0.11317  1
 N  N4  1  0.49998  0.81233  0.38683  1
 Zn  Zn1  1  0.50001  0.38856  0.81960  1
 Zn  Zn2  1  0.49999  0.88856  0.68040  1
 Zn  Zn3  1  0.49999  0.61144  0.18040  1
 Zn  Zn4  1  0.50001  0.11144  0.31960  1
