CIF file written using JARVIS-Tools package.
data_MgRuN2
_symmetry_space_group_name_H-M  'Pna2_1'
_cell_length_a       5.75452
_cell_length_b       6.53581
_cell_length_c       5.34305
_cell_angle_alpha    90
_cell_angle_beta     90
_cell_angle_gamma    90

_symmetry_Int_Tables_number  33
_chemical_formula_structural  MgRuN2
_chemical_formula_sum  Mg4Ru4N8
_cell_volume  200.95446865254618
_cell_formula_units_Z  4
loop_
  _symmetry_equiv_pos_site_id
 _symmetry_equiv_pos_as_xyz
 1  'x, y, z'
loop_
 _atom_site_type_symbol
 _atom_site_label
 _atom_site_symmetry_multiplicity
 _atom_site_fract_x
 _atom_site_fract_y
 _atom_site_fract_z
 _atom_site_fract_occupancy
 Mg  Mg1  1  0.59199  0.87511  0.99914  1
 Mg  Mg2  1  0.40801  0.12489  0.49914  1
 Mg  Mg3  1  0.90801  0.37511  0.49914  1
 Mg  Mg4  1  0.09199  0.62489  0.99914  1
 N  N1  1  0.56937  0.39075  0.36654  1
 N  N2  1  0.43063  0.60925  0.86654  1
 N  N3  1  0.93063  0.89075  0.86654  1
 N  N4  1  0.06937  0.10925  0.36654  1
 N  N5  1  0.60803  0.87137  0.39471  1
 N  N6  1  0.39197  0.12863  0.89471  1
 N  N7  1  0.89197  0.37137  0.89471  1
 N  N8  1  0.10803  0.62863  0.39471  1
 Ru  Ru1  1  0.57101  0.36168  0.00960  1
 Ru  Ru2  1  0.42899  0.63832  0.50960  1
 Ru  Ru3  1  0.92899  0.86168  0.50960  1
 Ru  Ru4  1  0.07101  0.13832  0.00960  1
