CIF file written using JARVIS-Tools package.
data_LaN
_symmetry_space_group_name_H-M  'Cm'
_cell_length_a       3.70995
_cell_length_b       3.81166
_cell_length_c       5.15086
_cell_angle_alpha    90.0378
_cell_angle_beta     133.939
_cell_angle_gamma    120.349

_symmetry_Int_Tables_number  8
_chemical_formula_structural  LaN
_chemical_formula_sum  LaN
_cell_volume  37.33655387951829
_cell_formula_units_Z  1
loop_
  _symmetry_equiv_pos_site_id
 _symmetry_equiv_pos_as_xyz
 1  'x, y, z'
loop_
 _atom_site_type_symbol
 _atom_site_label
 _atom_site_symmetry_multiplicity
 _atom_site_fract_x
 _atom_site_fract_y
 _atom_site_fract_z
 _atom_site_fract_occupancy
 La  La1  1  0.13162  0.74146  0.77702  1
 N  N1  1  -0.01431  0.65835  0.20430  1
