CIF file written using JARVIS-Tools package.
data_HPbO
_symmetry_space_group_name_H-M  'Pmm2'
_cell_length_a       3.21825
_cell_length_b       5.75319
_cell_length_c       3.31469
_cell_angle_alpha    90
_cell_angle_beta     90
_cell_angle_gamma    56.1547

_symmetry_Int_Tables_number  25
_chemical_formula_structural  HPbO
_chemical_formula_sum  HPbO
_cell_volume  50.97231998297907
_cell_formula_units_Z  1
loop_
  _symmetry_equiv_pos_site_id
 _symmetry_equiv_pos_as_xyz
 1  'x, y, z'
loop_
 _atom_site_type_symbol
 _atom_site_label
 _atom_site_symmetry_multiplicity
 _atom_site_fract_x
 _atom_site_fract_y
 _atom_site_fract_z
 _atom_site_fract_occupancy
 H  H1  1  -0.03967  -0.08697  0.00000  1
 O  O1  1  0.26385  -0.08640  0.00000  1
 Pb  Pb1  1  -0.09635  0.41333  0.00000  1
