CIF file written using JARVIS-Tools package.
data_Ba5Sn2N6
_symmetry_space_group_name_H-M  'C2/c'
_cell_length_a       6.6891
_cell_length_b       7.26572
_cell_length_c       14.6386
_cell_angle_alpha    90
_cell_angle_beta     97.6494
_cell_angle_gamma    122.895

_symmetry_Int_Tables_number  15
_chemical_formula_structural  Ba5Sn2N6
_chemical_formula_sum  Ba0Sn4N2
_cell_volume  589.8293317036198
_cell_formula_units_Z  2
loop_
  _symmetry_equiv_pos_site_id
 _symmetry_equiv_pos_as_xyz
 1  'x, y, z'
loop_
 _atom_site_type_symbol
 _atom_site_label
 _atom_site_symmetry_multiplicity
 _atom_site_fract_x
 _atom_site_fract_y
 _atom_site_fract_z
 _atom_site_fract_occupancy
 Ba  Ba1  1  0.09600  0.77278  0.99199  1
 Ba  Ba2  1  0.00000  0.62473  0.25000  1
 Ba  Ba3  1  0.31543  0.24614  0.21321  1
 Ba  Ba4  1  0.68457  0.93072  0.28679  1
 Ba  Ba5  1  0.68457  0.75386  0.78679  1
 Ba  Ba6  1  -0.00000  0.37527  0.75000  1
 Ba  Ba7  1  0.09600  0.32323  0.49199  1
 Ba  Ba8  1  0.90400  0.22722  0.00801  1
 Ba  Ba9  1  0.90400  0.67677  0.50801  1
 Ba  Ba10  1  0.31543  0.06928  0.71321  1
 N  N1  1  0.90292  0.92897  0.12433  1
 N  N2  1  0.60778  0.22069  0.56723  1
 N  N3  1  0.28846  0.59474  0.15363  1
 N  N4  1  0.71154  0.30628  0.34637  1
 N  N5  1  0.71154  0.40526  0.84637  1
 N  N6  1  0.28846  0.69372  0.65363  1
 N  N7  1  0.09708  0.02605  0.37567  1
 N  N8  1  0.60778  0.38709  0.06723  1
 N  N9  1  0.90292  0.97395  0.62433  1
 N  N10  1  0.39222  0.77931  0.43277  1
 N  N11  1  0.39222  0.61291  0.93277  1
 N  N12  1  0.09708  0.07103  0.87567  1
 Sn  Sn1  1  0.44191  0.33521  0.92506  1
 Sn  Sn2  1  0.44191  0.10670  0.42506  1
 Sn  Sn3  1  0.55809  0.66479  0.07494  1
 Sn  Sn4  1  0.55809  0.89330  0.57494  1
