CIF file written using JARVIS-Tools package.
data_BPO4
_symmetry_space_group_name_H-M  'Cmmm'
_cell_length_a       4.4557
_cell_length_b       4.4557
_cell_length_c       2.42284
_cell_angle_alpha    90
_cell_angle_beta     90
_cell_angle_gamma    101.387

_symmetry_Int_Tables_number  65
_chemical_formula_structural  BPO4
_chemical_formula_sum  BPO4
_cell_volume  47.15438837982736
_cell_formula_units_Z  1
loop_
  _symmetry_equiv_pos_site_id
 _symmetry_equiv_pos_as_xyz
 1  'x, y, z'
loop_
 _atom_site_type_symbol
 _atom_site_label
 _atom_site_symmetry_multiplicity
 _atom_site_fract_x
 _atom_site_fract_y
 _atom_site_fract_z
 _atom_site_fract_occupancy
 B  B1  1  0.00000  0.00000  0.00000  1
 O  O1  1  0.17973  0.17973  0.50000  1
 O  O2  1  0.33638  0.66362  0.00000  1
 O  O3  1  0.82027  0.82027  0.50000  1
 O  O4  1  0.66362  0.33638  0.00000  1
 P  P1  1  0.50000  0.50000  0.50000  1
