CIF file written using JARVIS-Tools package.
data_BTe
_symmetry_space_group_name_H-M  'P-1'
_cell_length_a       4.40207
_cell_length_b       9.20349
_cell_length_c       4.40163
_cell_angle_alpha    135.368
_cell_angle_beta     131.689
_cell_angle_gamma    56.1951

_symmetry_Int_Tables_number  2
_chemical_formula_structural  BTe
_chemical_formula_sum  B2Te2
_cell_volume  92.37774747440088
_cell_formula_units_Z  2
loop_
  _symmetry_equiv_pos_site_id
 _symmetry_equiv_pos_as_xyz
 1  'x, y, z'
loop_
 _atom_site_type_symbol
 _atom_site_label
 _atom_site_symmetry_multiplicity
 _atom_site_fract_x
 _atom_site_fract_y
 _atom_site_fract_z
 _atom_site_fract_occupancy
 B  B1  1  0.72174  0.09904  0.05645  1
 B  B2  1  -0.05854  0.02513  -0.23502  1
 Te  Te1  1  0.60026  0.83088  0.91784  1
 Te  Te2  1  0.06293  0.29329  0.90360  1
