CIF file written using JARVIS-Tools package.
data_HS
_symmetry_space_group_name_H-M  'P1'
_cell_length_a       3.98615
_cell_length_b       5.10389
_cell_length_c       3.98402
_cell_angle_alpha    93.5806
_cell_angle_beta     61.0055
_cell_angle_gamma    71.8227

_symmetry_Int_Tables_number  1
_chemical_formula_structural  HS
_chemical_formula_sum  H2S2
_cell_volume  65.09294014828849
_cell_formula_units_Z  2
loop_
  _symmetry_equiv_pos_site_id
 _symmetry_equiv_pos_as_xyz
 1  'x, y, z'
loop_
 _atom_site_type_symbol
 _atom_site_label
 _atom_site_symmetry_multiplicity
 _atom_site_fract_x
 _atom_site_fract_y
 _atom_site_fract_z
 _atom_site_fract_occupancy
 H  H1  1  0.00779  0.30515  0.35186  1
 H  H2  1  0.38340  0.64760  0.02990  1
 S  S1  1  0.23495  0.17522  0.95674  1
 S  S2  1  0.62724  0.79911  -0.03805  1
