CIF file written using JARVIS-Tools package.
data_Rb2CoO3
_symmetry_space_group_name_H-M  'Cmcm'
_cell_length_a       7.30248
_cell_length_b       8.2408
_cell_length_c       8.24084
_cell_angle_alpha    98.7792
_cell_angle_beta     116.301
_cell_angle_gamma    63.7001

_symmetry_Int_Tables_number  63
_chemical_formula_structural  Rb2CoO3
_chemical_formula_sum  Rb8Co4O2
_cell_volume  397.97191197012296
_cell_formula_units_Z  4
loop_
  _symmetry_equiv_pos_site_id
 _symmetry_equiv_pos_as_xyz
 1  'x, y, z'
loop_
 _atom_site_type_symbol
 _atom_site_label
 _atom_site_symmetry_multiplicity
 _atom_site_fract_x
 _atom_site_fract_y
 _atom_site_fract_z
 _atom_site_fract_occupancy
 Co  Co1  1  0.07216  0.87000  0.87000  1
 Co  Co2  1  0.92784  0.11999  0.12000  1
 Co  Co3  1  0.07216  0.37000  0.37000  1
 Co  Co4  1  0.92784  0.62000  0.62000  1
 O  O1  1  0.11975  0.87528  0.11472  1
 O  O2  1  0.88025  0.36473  0.12528  1
 O  O3  1  0.88026  0.86472  0.62528  1
 O  O4  1  0.88030  0.61473  0.37528  1
 O  O5  1  0.88029  0.11472  0.87528  1
 O  O6  1  0.32063  0.86997  0.86997  1
 O  O7  1  0.32063  0.36998  0.36997  1
 O  O8  1  0.67937  0.61996  0.61997  1
 O  O9  1  0.67938  0.11996  0.11997  1
 O  O10  1  0.11970  0.12528  0.36473  1
 O  O11  1  0.11975  0.37529  0.61473  1
 O  O12  1  0.11971  0.62528  0.86472  1
 Rb  Rb1  1  0.18304  0.78103  0.45899  1
 Rb  Rb2  1  0.18304  0.28103  0.95900  1
 Rb  Rb3  1  0.49492  0.03104  0.70900  1
 Rb  Rb4  1  0.49493  0.53103  0.20900  1
 Rb  Rb5  1  0.50507  0.45900  0.78103  1
 Rb  Rb6  1  0.50507  0.95900  0.28103  1
 Rb  Rb7  1  0.81696  0.70900  0.03104  1
 Rb  Rb8  1  0.81696  0.20900  0.53103  1
