CIF file written using JARVIS-Tools package.
data_TiAlW2O8
_symmetry_space_group_name_H-M  'P2/c'
_cell_length_a       5.56355
_cell_length_b       4.92974
_cell_length_c       10.2389
_cell_angle_alpha    63.9922
_cell_angle_beta     90
_cell_angle_gamma    90

_symmetry_Int_Tables_number  13
_chemical_formula_structural  TiAlW2O8
_chemical_formula_sum  Ti2Al2W4O6
_cell_volume  252.38320561307856
_cell_formula_units_Z  2
loop_
  _symmetry_equiv_pos_site_id
 _symmetry_equiv_pos_as_xyz
 1  'x, y, z'
loop_
 _atom_site_type_symbol
 _atom_site_label
 _atom_site_symmetry_multiplicity
 _atom_site_fract_x
 _atom_site_fract_y
 _atom_site_fract_z
 _atom_site_fract_occupancy
 Al  Al1  1  0.64821  0.00000  0.75000  1
 Al  Al2  1  0.35179  0.00000  0.25000  1
 O  O1  1  0.35473  0.78772  0.13735  1
 O  O2  1  0.39002  0.73126  0.86527  1
 O  O3  1  0.39002  0.26874  0.63473  1
 O  O4  1  0.60998  0.26874  0.13473  1
 O  O5  1  0.87682  0.29584  0.61592  1
 O  O6  1  0.85827  0.22054  0.37144  1
 O  O7  1  0.85827  0.77946  0.12856  1
 O  O8  1  0.60998  0.73126  0.36527  1
 O  O9  1  0.14173  0.22054  0.87144  1
 O  O10  1  0.64527  0.21228  0.86265  1
 O  O11  1  0.12318  0.70416  0.38408  1
 O  O12  1  0.14173  0.77946  0.62856  1
 O  O13  1  0.35473  0.21228  0.36265  1
 O  O14  1  0.87682  0.70416  0.88408  1
 O  O15  1  0.12318  0.29584  0.11592  1
 O  O16  1  0.64527  0.78772  0.63735  1
 Ti  Ti1  1  0.62585  0.50000  0.25000  1
 Ti  Ti2  1  0.37415  0.50000  0.75000  1
 W  W1  1  0.86587  0.22254  0.00570  1
 W  W2  1  0.86587  0.77746  0.49430  1
 W  W3  1  0.13413  0.77746  0.99430  1
 W  W4  1  0.13413  0.22254  0.50570  1
