CIF file written using JARVIS-Tools package.
data_Li2NiO2
_symmetry_space_group_name_H-M  'Immm'
_cell_length_a       5.00654
_cell_length_b       5.00654
_cell_length_c       5.00654
_cell_angle_alpha    147.578
_cell_angle_beta     135.816
_cell_angle_gamma    55.8587

_symmetry_Int_Tables_number  71
_chemical_formula_structural  Li2NiO2
_chemical_formula_sum  Li2NiO2
_cell_volume  46.565049320563745
_cell_formula_units_Z  1
loop_
  _symmetry_equiv_pos_site_id
 _symmetry_equiv_pos_as_xyz
 1  'x, y, z'
loop_
 _atom_site_type_symbol
 _atom_site_label
 _atom_site_symmetry_multiplicity
 _atom_site_fract_x
 _atom_site_fract_y
 _atom_site_fract_z
 _atom_site_fract_occupancy
 Li  Li1  1  0.80462  0.30463  0.50000  1
 Li  Li2  1  0.19538  0.69537  0.50000  1
 Ni  Ni1  1  0.50000  0.00000  0.50000  1
 O  O1  1  0.35660  0.35660  -0.00000  1
 O  O2  1  0.64340  0.64340  -0.00000  1
