CIF file written using JARVIS-Tools package.
data_H2S
_symmetry_space_group_name_H-M  'P4/mmm'
_cell_length_a       7.66682
_cell_length_b       7.66682
_cell_length_c       10.3844
_cell_angle_alpha    90
_cell_angle_beta     90
_cell_angle_gamma    90

_symmetry_Int_Tables_number  123
_chemical_formula_structural  H2S
_chemical_formula_sum  H2S
_cell_volume  610.3960293939441
_cell_formula_units_Z  1
loop_
  _symmetry_equiv_pos_site_id
 _symmetry_equiv_pos_as_xyz
 1  'x, y, z'
loop_
 _atom_site_type_symbol
 _atom_site_label
 _atom_site_symmetry_multiplicity
 _atom_site_fract_x
 _atom_site_fract_y
 _atom_site_fract_z
 _atom_site_fract_occupancy
 H  H1  1  0.00000  0.00000  0.12707  1
 H  H2  1  0.00000  0.00000  0.87293  1
 S  S1  1  0.00000  0.00000  0.00000  1
