CIF file written using JARVIS-Tools package.
data_BaC
_symmetry_space_group_name_H-M  'R-3m'
_cell_length_a       4.22905
_cell_length_b       4.22739
_cell_length_c       5.98492
_cell_angle_alpha    45.1255
_cell_angle_beta     89.7523
_cell_angle_gamma    119.812

_symmetry_Int_Tables_number  166
_chemical_formula_structural  BaC
_chemical_formula_sum  BaC
_cell_volume  53.70933734659756
_cell_formula_units_Z  1
loop_
  _symmetry_equiv_pos_site_id
 _symmetry_equiv_pos_as_xyz
 1  'x, y, z'
loop_
 _atom_site_type_symbol
 _atom_site_label
 _atom_site_symmetry_multiplicity
 _atom_site_fract_x
 _atom_site_fract_y
 _atom_site_fract_z
 _atom_site_fract_occupancy
 Ba  Ba1  1  0.98062  0.34959  0.15419  1
 C  C1  1  0.98062  0.34959  0.65418  1
