CIF file written using JARVIS-Tools package.
data_Li2CrO2
_symmetry_space_group_name_H-M  'Immm'
_cell_length_a       4.7115
_cell_length_b       6.65455
_cell_length_c       6.65455
_cell_angle_alpha    90.3237
_cell_angle_beta     99.8253
_cell_angle_gamma    99.8261

_symmetry_Int_Tables_number  71
_chemical_formula_structural  Li2CrO2
_chemical_formula_sum  Li8Cr4O8
_cell_volume  202.43387510415334
_cell_formula_units_Z  4
loop_
  _symmetry_equiv_pos_site_id
 _symmetry_equiv_pos_as_xyz
 1  'x, y, z'
loop_
 _atom_site_type_symbol
 _atom_site_label
 _atom_site_symmetry_multiplicity
 _atom_site_fract_x
 _atom_site_fract_y
 _atom_site_fract_z
 _atom_site_fract_occupancy
 Cr  Cr1  1  0.00003  0.00001  0.00001  1
 Cr  Cr2  1  0.24997  0.74999  0.74999  1
 Cr  Cr3  1  0.50003  0.50001  0.50001  1
 Cr  Cr4  1  0.74997  0.24999  0.24999  1
 Li  Li1  1  0.50004  0.79220  0.20780  1
 Li  Li2  1  0.74996  0.54220  0.95781  1
 Li  Li3  1  0.74996  0.95781  0.54220  1
 Li  Li4  1  0.00004  0.29219  0.70780  1
 Li  Li5  1  0.24996  0.45780  0.04220  1
 Li  Li6  1  0.50004  0.20780  0.79220  1
 Li  Li7  1  0.00004  0.70780  0.29219  1
 Li  Li8  1  0.24996  0.04220  0.45780  1
 O  O1  1  0.87499  0.27087  0.97913  1
 O  O2  1  0.62500  0.22913  0.52087  1
 O  O3  1  0.87501  0.97913  0.27087  1
 O  O4  1  0.37501  0.47913  0.77087  1
 O  O5  1  0.12501  0.72913  0.02087  1
 O  O6  1  0.12500  0.02087  0.72913  1
 O  O7  1  0.37500  0.77087  0.47913  1
 O  O8  1  0.62499  0.52087  0.22913  1
