CIF file written using JARVIS-Tools package.
data_HS
_symmetry_space_group_name_H-M  'P4/nmm'
_cell_length_a       3.92709
_cell_length_b       3.92709
_cell_length_c       3.88398
_cell_angle_alpha    90
_cell_angle_beta     90
_cell_angle_gamma    90

_symmetry_Int_Tables_number  129
_chemical_formula_structural  HS
_chemical_formula_sum  H2S2
_cell_volume  59.89892484872903
_cell_formula_units_Z  2
loop_
  _symmetry_equiv_pos_site_id
 _symmetry_equiv_pos_as_xyz
 1  'x, y, z'
loop_
 _atom_site_type_symbol
 _atom_site_label
 _atom_site_symmetry_multiplicity
 _atom_site_fract_x
 _atom_site_fract_y
 _atom_site_fract_z
 _atom_site_fract_occupancy
 H  H1  1  0.00000  0.00000  0.81824  1
 H  H2  1  0.50000  0.50000  0.18177  1
 S  S1  1  0.00000  0.00000  0.47131  1
 S  S2  1  0.50000  0.50000  0.52868  1
