CIF file written using JARVIS-Tools package.
data_BaC3
_symmetry_space_group_name_H-M  'Cm'
_cell_length_a       4.20439
_cell_length_b       2.83956
_cell_length_c       5.1071
_cell_angle_alpha    106.065
_cell_angle_beta     102.142
_cell_angle_gamma    90.0097

_symmetry_Int_Tables_number  8
_chemical_formula_structural  BaC3
_chemical_formula_sum  BaC3
_cell_volume  57.16926232341288
_cell_formula_units_Z  1
loop_
  _symmetry_equiv_pos_site_id
 _symmetry_equiv_pos_as_xyz
 1  'x, y, z'
loop_
 _atom_site_type_symbol
 _atom_site_label
 _atom_site_symmetry_multiplicity
 _atom_site_fract_x
 _atom_site_fract_y
 _atom_site_fract_z
 _atom_site_fract_occupancy
 Ba  Ba1  1  0.70948  -0.00946  0.01826  1
 C  C1  1  0.33256  0.65689  0.35045  1
 C  C2  1  0.14969  0.75532  0.54741  1
 C  C3  1  0.07575  0.31487  0.66740  1
