CIF file written using JARVIS-Tools package.
data_BaCoO3
_symmetry_space_group_name_H-M  'P6_3/mmc'
_cell_length_a       5.68407
_cell_length_b       5.68407
_cell_length_c       9.5121
_cell_angle_alpha    90.0073
_cell_angle_beta     90.01
_cell_angle_gamma    60.0003

_symmetry_Int_Tables_number  194
_chemical_formula_structural  BaCoO3
_chemical_formula_sum  Ba4Co4O2
_cell_volume  266.1507995279668
_cell_formula_units_Z  4
loop_
  _symmetry_equiv_pos_site_id
 _symmetry_equiv_pos_as_xyz
 1  'x, y, z'
loop_
 _atom_site_type_symbol
 _atom_site_label
 _atom_site_symmetry_multiplicity
 _atom_site_fract_x
 _atom_site_fract_y
 _atom_site_fract_z
 _atom_site_fract_occupancy
 Ba  Ba1  1  0.33330  0.33336  0.50001  1
 Ba  Ba2  1  0.33337  0.33329  -0.00000  1
 Ba  Ba3  1  0.66666  0.66667  0.25001  1
 Ba  Ba4  1  0.66666  0.66667  0.75000  1
 Co  Co1  1  -0.00003  0.00002  0.62500  1
 Co  Co2  1  0.00003  -0.00003  0.87500  1
 Co  Co3  1  0.00002  -0.00003  0.12500  1
 Co  Co4  1  -0.00004  0.00003  0.37500  1
 O  O1  1  0.85074  0.85084  0.49998  1
 O  O2  1  0.14919  0.14922  0.25003  1
 O  O3  1  0.70158  0.14920  0.24997  1
 O  O4  1  0.70158  0.14923  0.74999  1
 O  O5  1  0.85084  0.85074  0.99997  1
 O  O6  1  0.14921  0.70159  0.25001  1
 O  O7  1  0.85076  0.29845  0.50001  1
 O  O8  1  0.85084  0.29837  0.00000  1
 O  O9  1  0.29837  0.85081  0.50002  1
 O  O10  1  0.14918  0.70158  0.74998  1
 O  O11  1  0.29845  0.85075  0.00002  1
 O  O12  1  0.14923  0.14919  0.75002  1
