CIF file written using JARVIS-Tools package.
data_HfZrO4
_symmetry_space_group_name_H-M  'Cmmm'
_cell_length_a       4.86412
_cell_length_b       4.86412
_cell_length_c       3.24515
_cell_angle_alpha    90
_cell_angle_beta     90
_cell_angle_gamma    90.1123

_symmetry_Int_Tables_number  65
_chemical_formula_structural  HfZrO4
_chemical_formula_sum  HfZrO4
_cell_volume  76.77894564274905
_cell_formula_units_Z  1
loop_
  _symmetry_equiv_pos_site_id
 _symmetry_equiv_pos_as_xyz
 1  'x, y, z'
loop_
 _atom_site_type_symbol
 _atom_site_label
 _atom_site_symmetry_multiplicity
 _atom_site_fract_x
 _atom_site_fract_y
 _atom_site_fract_z
 _atom_site_fract_occupancy
 Hf  Hf1  1  0.50000  0.50000  0.00000  1
 O  O1  1  0.19633  0.19633  0.00000  1
 O  O2  1  0.30676  0.69324  0.50000  1
 O  O3  1  0.69324  0.30676  0.50000  1
 O  O4  1  0.80367  0.80367  0.00000  1
 Zr  Zr1  1  0.00000  0.00000  0.50000  1
