CIF file written using JARVIS-Tools package.
data_NbAlO4
_symmetry_space_group_name_H-M  'I-4m2'
_cell_length_a       5.51352
_cell_length_b       5.51352
_cell_length_c       5.51352
_cell_angle_alpha    139.213
_cell_angle_beta     139.213
_cell_angle_gamma    59.0501

_symmetry_Int_Tables_number  119
_chemical_formula_structural  NbAlO4
_chemical_formula_sum  NbAlO4
_cell_volume  70.83598378857465
_cell_formula_units_Z  1
loop_
  _symmetry_equiv_pos_site_id
 _symmetry_equiv_pos_as_xyz
 1  'x, y, z'
loop_
 _atom_site_type_symbol
 _atom_site_label
 _atom_site_symmetry_multiplicity
 _atom_site_fract_x
 _atom_site_fract_y
 _atom_site_fract_z
 _atom_site_fract_occupancy
 Al  Al1  1  0.75000  0.25000  0.50000  1
 Nb  Nb1  1  0.00000  0.00000  0.00000  1
 O  O1  1  0.94937  0.44937  0.50000  1
 O  O2  1  0.78841  0.78841  0.00000  1
 O  O3  1  0.55063  0.05063  0.50000  1
 O  O4  1  0.21159  0.21159  0.00000  1
