CIF file written using JARVIS-Tools package.
data_YbFeO3
_symmetry_space_group_name_H-M  'Pnma'
_cell_length_a       5.16877
_cell_length_b       5.2594
_cell_length_c       7.35701
_cell_angle_alpha    90
_cell_angle_beta     90
_cell_angle_gamma    90

_symmetry_Int_Tables_number  62
_chemical_formula_structural  YbFeO3
_chemical_formula_sum  Yb4Fe4O2
_cell_volume  199.99788179137738
_cell_formula_units_Z  4
loop_
  _symmetry_equiv_pos_site_id
 _symmetry_equiv_pos_as_xyz
 1  'x, y, z'
loop_
 _atom_site_type_symbol
 _atom_site_label
 _atom_site_symmetry_multiplicity
 _atom_site_fract_x
 _atom_site_fract_y
 _atom_site_fract_z
 _atom_site_fract_occupancy
 Fe  Fe1  1  0.00000  0.50000  0.50000  1
 Fe  Fe2  1  0.50000  0.00000  0.50000  1
 Fe  Fe3  1  0.50000  0.00000  0.00000  1
 Fe  Fe4  1  0.00000  0.50000  0.00000  1
 O  O1  1  0.07139  0.48957  0.25000  1
 O  O2  1  0.70791  0.29103  0.46272  1
 O  O3  1  0.42861  0.98957  0.25000  1
 O  O4  1  0.79209  0.79103  0.03728  1
 O  O5  1  0.29209  0.70897  0.96272  1
 O  O6  1  0.20791  0.20897  0.53728  1
 O  O7  1  0.79209  0.79103  0.46272  1
 O  O8  1  0.92861  0.51043  0.75000  1
 O  O9  1  0.70791  0.29103  0.03728  1
 O  O10  1  0.29209  0.70897  0.53728  1
 O  O11  1  0.57139  0.01043  0.75000  1
 O  O12  1  0.20791  0.20897  0.96272  1
 Yb  Yb1  1  0.98916  0.04979  0.25000  1
 Yb  Yb2  1  0.48916  0.45021  0.75000  1
 Yb  Yb3  1  0.51084  0.54979  0.25000  1
 Yb  Yb4  1  0.01084  0.95021  0.75000  1
