CIF file written using JARVIS-Tools package.
data_BaOF
_symmetry_space_group_name_H-M  'Amm2'
_cell_length_a       4.76
_cell_length_b       4.49026
_cell_length_c       4.67341
_cell_angle_alpha    90
_cell_angle_beta     90
_cell_angle_gamma    122.013

_symmetry_Int_Tables_number  38
_chemical_formula_structural  BaOF
_chemical_formula_sum  BaOF
_cell_volume  84.69739171096383
_cell_formula_units_Z  1
loop_
  _symmetry_equiv_pos_site_id
 _symmetry_equiv_pos_as_xyz
 1  'x, y, z'
loop_
 _atom_site_type_symbol
 _atom_site_label
 _atom_site_symmetry_multiplicity
 _atom_site_fract_x
 _atom_site_fract_y
 _atom_site_fract_z
 _atom_site_fract_occupancy
 Ba  Ba1  1  0.33236  -0.00199  0.00000  1
 F  F1  1  -0.01085  0.31160  0.00000  1
 O  O1  1  0.67849  0.69040  0.00000  1
