CIF file written using JARVIS-Tools package.
data_CdTeMoO6
_symmetry_space_group_name_H-M  'P-42_1m'
_cell_length_a       5.31416
_cell_length_b       5.31416
_cell_length_c       9.07961
_cell_angle_alpha    90
_cell_angle_beta     90
_cell_angle_gamma    90

_symmetry_Int_Tables_number  113
_chemical_formula_structural  CdTeMoO6
_chemical_formula_sum  Cd2Te2Mo2O2
_cell_volume  256.411189713395
_cell_formula_units_Z  2
loop_
  _symmetry_equiv_pos_site_id
 _symmetry_equiv_pos_as_xyz
 1  'x, y, z'
loop_
 _atom_site_type_symbol
 _atom_site_label
 _atom_site_symmetry_multiplicity
 _atom_site_fract_x
 _atom_site_fract_y
 _atom_site_fract_z
 _atom_site_fract_occupancy
 Cd  Cd1  1  0.00000  0.00000  0.50000  1
 Cd  Cd2  1  0.50000  0.50000  0.50000  1
 Mo  Mo1  1  0.50000  0.00000  0.18286  1
 Mo  Mo2  1  0.00000  0.50000  0.81714  1
 O  O1  1  0.68154  0.18154  0.06653  1
 O  O2  1  0.31846  0.81846  0.06653  1
 O  O3  1  0.18154  0.31846  0.93347  1
 O  O4  1  0.80540  0.30540  0.37328  1
 O  O5  1  0.19460  0.69460  0.37328  1
 O  O6  1  0.21668  0.71668  0.71572  1
 O  O7  1  0.28332  0.21668  0.28428  1
 O  O8  1  0.78332  0.28332  0.71572  1
 O  O9  1  0.30540  0.19460  0.62672  1
 O  O10  1  0.81846  0.68154  0.93347  1
 O  O11  1  0.69460  0.80540  0.62672  1
 O  O12  1  0.71668  0.78332  0.28428  1
 Te  Te1  1  0.00000  0.50000  0.23624  1
 Te  Te2  1  0.50000  0.00000  0.76376  1
