CIF file written using JARVIS-Tools package.
data_HfSe3
_symmetry_space_group_name_H-M  'P1'
_cell_length_a       6.01065
_cell_length_b       6.14109
_cell_length_c       5.12741
_cell_angle_alpha    63.579
_cell_angle_beta     81.186
_cell_angle_gamma    130.054

_symmetry_Int_Tables_number  1
_chemical_formula_structural  HfSe3
_chemical_formula_sum  HfSe3
_cell_volume  99.55188032763024
_cell_formula_units_Z  1
loop_
  _symmetry_equiv_pos_site_id
 _symmetry_equiv_pos_as_xyz
 1  'x, y, z'
loop_
 _atom_site_type_symbol
 _atom_site_label
 _atom_site_symmetry_multiplicity
 _atom_site_fract_x
 _atom_site_fract_y
 _atom_site_fract_z
 _atom_site_fract_occupancy
 Hf  Hf1  1  0.14414  0.67957  0.42024  1
 Se  Se1  1  0.79302  -0.00625  0.07197  1
 Se  Se2  1  0.08716  0.07497  0.36613  1
 Se  Se3  1  0.43279  0.01644  0.70799  1
