CIF file written using JARVIS-Tools package.
data_MgCl
_symmetry_space_group_name_H-M  'Cmcm'
_cell_length_a       3.46375
_cell_length_b       5.39395
_cell_length_c       5.60903
_cell_angle_alpha    118.73
_cell_angle_beta     89.9939
_cell_angle_gamma    89.9966

_symmetry_Int_Tables_number  63
_chemical_formula_structural  MgCl
_chemical_formula_sum  Mg2Cl2
_cell_volume  91.89427638115858
_cell_formula_units_Z  2
loop_
  _symmetry_equiv_pos_site_id
 _symmetry_equiv_pos_as_xyz
 1  'x, y, z'
loop_
 _atom_site_type_symbol
 _atom_site_label
 _atom_site_symmetry_multiplicity
 _atom_site_fract_x
 _atom_site_fract_y
 _atom_site_fract_z
 _atom_site_fract_occupancy
 Cl  Cl1  1  0.19609  0.44600  0.11919  1
 Cl  Cl2  1  0.69609  0.08444  0.39603  1
 Mg  Mg1  1  0.19618  0.89135  0.00938  1
 Mg  Mg2  1  0.69604  0.63901  0.50596  1
