CIF file written using JARVIS-Tools package.
data_BaMgTe
_symmetry_space_group_name_H-M  'Amm2'
_cell_length_a       7.32022
_cell_length_b       4.57813
_cell_length_c       4.49779
_cell_angle_alpha    90
_cell_angle_beta     90
_cell_angle_gamma    108.136

_symmetry_Int_Tables_number  38
_chemical_formula_structural  BaMgTe
_chemical_formula_sum  BaMgTe
_cell_volume  143.24553694022532
_cell_formula_units_Z  1
loop_
  _symmetry_equiv_pos_site_id
 _symmetry_equiv_pos_as_xyz
 1  'x, y, z'
loop_
 _atom_site_type_symbol
 _atom_site_label
 _atom_site_symmetry_multiplicity
 _atom_site_fract_x
 _atom_site_fract_y
 _atom_site_fract_z
 _atom_site_fract_occupancy
 Ba  Ba1  1  -0.19432  -0.20413  0.00000  1
 Mg  Mg1  1  0.40348  0.09461  0.00000  1
 Te  Te1  1  0.16488  0.47547  0.00000  1
