CIF file written using JARVIS-Tools package.
data_RbMn4O8
_symmetry_space_group_name_H-M  'I4/m'
_cell_length_a       7.09016
_cell_length_b       7.09016
_cell_length_c       9.81561
_cell_angle_alpha    46.1514
_cell_angle_beta     46.1514
_cell_angle_gamma    23.64

_symmetry_Int_Tables_number  87
_chemical_formula_structural  RbMn4O8
_chemical_formula_sum  RbMn4O8
_cell_volume  139.77997617017022
_cell_formula_units_Z  1
loop_
  _symmetry_equiv_pos_site_id
 _symmetry_equiv_pos_as_xyz
 1  'x, y, z'
loop_
 _atom_site_type_symbol
 _atom_site_label
 _atom_site_symmetry_multiplicity
 _atom_site_fract_x
 _atom_site_fract_y
 _atom_site_fract_z
 _atom_site_fract_occupancy
 Mn  Mn1  1  0.34884  0.34884  0.48514  1
 Mn  Mn2  1  0.16616  0.16616  0.18287  1
 Mn  Mn3  1  0.83384  0.83384  0.81713  1
 Mn  Mn4  1  0.65116  0.65116  0.51486  1
 O  O1  1  0.54152  0.54152  0.29135  1
 O  O2  1  0.15442  0.15442  0.64365  1
 O  O3  1  0.16796  0.16796  0.37358  1
 O  O4  1  0.20164  0.20164  0.95307  1
 O  O5  1  0.79836  0.79836  0.04693  1
 O  O6  1  0.83204  0.83204  0.62642  1
 O  O7  1  0.84558  0.84558  0.35635  1
 O  O8  1  0.45848  0.45848  0.70865  1
 Rb  Rb1  1  0.50000  0.50000  0.00000  1
