CIF file written using JARVIS-Tools package.
data_MgCl2
_symmetry_space_group_name_H-M  'Pmmm'
_cell_length_a       6.57037
_cell_length_b       3.45385
_cell_length_c       3.82926
_cell_angle_alpha    90
_cell_angle_beta     90
_cell_angle_gamma    90

_symmetry_Int_Tables_number  47
_chemical_formula_structural  MgCl2
_chemical_formula_sum  MgCl2
_cell_volume  86.89780402169148
_cell_formula_units_Z  1
loop_
  _symmetry_equiv_pos_site_id
 _symmetry_equiv_pos_as_xyz
 1  'x, y, z'
loop_
 _atom_site_type_symbol
 _atom_site_label
 _atom_site_symmetry_multiplicity
 _atom_site_fract_x
 _atom_site_fract_y
 _atom_site_fract_z
 _atom_site_fract_occupancy
 Cl  Cl1  1  0.24812  -0.04933  0.00000  1
 Cl  Cl2  1  0.75188  -0.04933  0.00000  1
 Mg  Mg1  1  0.00000  0.45067  0.00000  1
