CIF file written using JARVIS-Tools package.
data_Li4Ti3V3O12
_symmetry_space_group_name_H-M  'P-1'
_cell_length_a       5.06864
_cell_length_b       5.96594
_cell_length_c       7.79621
_cell_angle_alpha    78.0847
_cell_angle_beta     77.2002
_cell_angle_gamma    73.1319

_symmetry_Int_Tables_number  2
_chemical_formula_structural  Li4Ti3V3O12
_chemical_formula_sum  Li4Ti3V3O2
_cell_volume  217.43285776305024
_cell_formula_units_Z  1
loop_
  _symmetry_equiv_pos_site_id
 _symmetry_equiv_pos_as_xyz
 1  'x, y, z'
loop_
 _atom_site_type_symbol
 _atom_site_label
 _atom_site_symmetry_multiplicity
 _atom_site_fract_x
 _atom_site_fract_y
 _atom_site_fract_z
 _atom_site_fract_occupancy
 Li  Li1  1  0.50215  0.16501  0.33444  1
 Li  Li2  1  0.49785  0.83499  0.66556  1
 Li  Li3  1  0.99356  0.33449  0.16600  1
 Li  Li4  1  0.00644  0.66551  0.83400  1
 O  O1  1  0.74265  0.68700  0.09360  1
 O  O2  1  0.26700  0.64268  0.57954  1
 O  O3  1  0.73300  0.35732  0.42046  1
 O  O4  1  0.73584  0.01078  0.76089  1
 O  O5  1  0.75767  0.49183  0.73908  1
 O  O6  1  0.25380  0.18815  0.59165  1
 O  O7  1  0.76075  0.14135  0.07832  1
 O  O8  1  0.74620  0.81185  0.40835  1
 O  O9  1  0.26416  0.98922  0.23911  1
 O  O10  1  0.24233  0.50817  0.26092  1
 O  O11  1  0.25735  0.31300  0.90640  1
 O  O12  1  0.23925  0.85865  0.92168  1
 Ti  Ti1  1  0.48361  0.67025  0.33274  1
 Ti  Ti2  1  0.50000  -0.00000  -0.00000  1
 Ti  Ti3  1  0.51639  0.32975  0.66726  1
 V  V1  1  0.00549  0.82920  0.17096  1
 V  V2  1  0.99451  0.17080  0.82904  1
 V  V3  1  -0.00000  0.50000  0.50000  1
