CIF file written using JARVIS-Tools package.
data_BaZnO
_symmetry_space_group_name_H-M  'Pm'
_cell_length_a       6.35013
_cell_length_b       6.35013
_cell_length_c       4.7626
_cell_angle_alpha    90
_cell_angle_beta     90
_cell_angle_gamma    90

_symmetry_Int_Tables_number  6
_chemical_formula_structural  BaZnO
_chemical_formula_sum  BaZnO
_cell_volume  192.04742754606858
_cell_formula_units_Z  1
loop_
  _symmetry_equiv_pos_site_id
 _symmetry_equiv_pos_as_xyz
 1  'x, y, z'
loop_
 _atom_site_type_symbol
 _atom_site_label
 _atom_site_symmetry_multiplicity
 _atom_site_fract_x
 _atom_site_fract_y
 _atom_site_fract_z
 _atom_site_fract_occupancy
 Ba  Ba1  1  0.38738  0.00235  0.00000  1
 O  O1  1  0.04983  0.27304  0.00000  1
 Zn  Zn1  1  -0.01692  -0.06301  0.00000  1
