CIF file written using JARVIS-Tools package.
data_InIO
_symmetry_space_group_name_H-M  'R-3m'
_cell_length_a       10.6184
_cell_length_b       10.6184
_cell_length_c       10.6184
_cell_angle_alpha    20.9514
_cell_angle_beta     20.9514
_cell_angle_gamma    20.9514

_symmetry_Int_Tables_number  166
_chemical_formula_structural  InIO
_chemical_formula_sum  In2I2O2
_cell_volume  134.0456687207169
_cell_formula_units_Z  2
loop_
  _symmetry_equiv_pos_site_id
 _symmetry_equiv_pos_as_xyz
 1  'x, y, z'
loop_
 _atom_site_type_symbol
 _atom_site_label
 _atom_site_symmetry_multiplicity
 _atom_site_fract_x
 _atom_site_fract_y
 _atom_site_fract_z
 _atom_site_fract_occupancy
 I  I1  1  0.11134  0.11134  0.11134  1
 I  I2  1  0.88866  0.88866  0.88866  1
 In  In1  1  0.28960  0.28960  0.28960  1
 In  In2  1  0.71040  0.71040  0.71039  1
 O  O1  1  0.36058  0.36058  0.36058  1
 O  O2  1  0.63943  0.63943  0.63942  1
