CIF file written using JARVIS-Tools package.
data_Li4CrF6
_symmetry_space_group_name_H-M  'P2_1/c'
_cell_length_a       4.89728
_cell_length_b       4.88538
_cell_length_c       10.0678
_cell_angle_alpha    64.9439
_cell_angle_beta     90
_cell_angle_gamma    90

_symmetry_Int_Tables_number  14
_chemical_formula_structural  Li4CrF6
_chemical_formula_sum  Li8Cr2F2
_cell_volume  218.20608604718447
_cell_formula_units_Z  2
loop_
  _symmetry_equiv_pos_site_id
 _symmetry_equiv_pos_as_xyz
 1  'x, y, z'
loop_
 _atom_site_type_symbol
 _atom_site_label
 _atom_site_symmetry_multiplicity
 _atom_site_fract_x
 _atom_site_fract_y
 _atom_site_fract_z
 _atom_site_fract_occupancy
 Cr  Cr1  1  0.50000  0.50000  -0.00000  1
 Cr  Cr2  1  0.00000  0.50000  0.50000  1
 F  F1  1  0.25430  0.19712  0.47890  1
 F  F2  1  0.28661  0.53676  0.16038  1
 F  F3  1  0.71339  0.46324  0.83962  1
 F  F4  1  0.74570  0.80288  0.52110  1
 F  F5  1  0.24570  0.19712  0.97890  1
 F  F6  1  0.77076  0.10368  0.19751  1
 F  F7  1  0.21339  0.53676  0.66038  1
 F  F8  1  0.78661  0.46324  0.33962  1
 F  F9  1  0.72924  0.10368  0.69751  1
 F  F10  1  0.22924  0.89632  0.80249  1
 F  F11  1  0.27076  0.89632  0.30249  1
 F  F12  1  0.75430  0.80288  0.02110  1
 Li  Li1  1  0.45139  0.89047  0.64034  1
 Li  Li2  1  0.05190  0.22709  0.28822  1
 Li  Li3  1  0.95139  0.10953  0.85966  1
 Li  Li4  1  0.44810  0.22709  0.78822  1
 Li  Li5  1  0.55190  0.77291  0.21178  1
 Li  Li6  1  0.04861  0.89047  0.14034  1
 Li  Li7  1  0.94810  0.77291  0.71178  1
 Li  Li8  1  0.54861  0.10953  0.35966  1
