CIF file written using JARVIS-Tools package.
data_MgSbO
_symmetry_space_group_name_H-M  'Pm'
_cell_length_a       3.24037
_cell_length_b       6.52603
_cell_length_c       3.2458
_cell_angle_alpha    90
_cell_angle_beta     90
_cell_angle_gamma    65.9754

_symmetry_Int_Tables_number  6
_chemical_formula_structural  MgSbO
_chemical_formula_sum  MgSbO
_cell_volume  62.6923117369604
_cell_formula_units_Z  1
loop_
  _symmetry_equiv_pos_site_id
 _symmetry_equiv_pos_as_xyz
 1  'x, y, z'
loop_
 _atom_site_type_symbol
 _atom_site_label
 _atom_site_symmetry_multiplicity
 _atom_site_fract_x
 _atom_site_fract_y
 _atom_site_fract_z
 _atom_site_fract_occupancy
 Mg  Mg1  1  -0.05468  -0.12072  0.00000  1
 O  O1  1  0.30861  0.04594  0.00000  1
 Sb  Sb1  1  -0.03070  0.40522  0.00000  1
