CIF file written using JARVIS-Tools package.
data_Fe6O5F7
_symmetry_space_group_name_H-M  'P1'
_cell_length_a       4.6114
_cell_length_b       5.50929
_cell_length_c       7.50383
_cell_angle_alpha    84.0455
_cell_angle_beta     87.9631
_cell_angle_gamma    86.187

_symmetry_Int_Tables_number  1
_chemical_formula_structural  Fe6O5F7
_chemical_formula_sum  Fe6O5F7
_cell_volume  189.11187139811568
_cell_formula_units_Z  1
loop_
  _symmetry_equiv_pos_site_id
 _symmetry_equiv_pos_as_xyz
 1  'x, y, z'
loop_
 _atom_site_type_symbol
 _atom_site_label
 _atom_site_symmetry_multiplicity
 _atom_site_fract_x
 _atom_site_fract_y
 _atom_site_fract_z
 _atom_site_fract_occupancy
 F  F1  1  0.22976  0.30478  0.90983  1
 F  F2  1  0.18993  0.94703  0.22387  1
 F  F3  1  0.29349  0.79147  0.90401  1
 F  F4  1  0.29638  0.13750  0.56208  1
 F  F5  1  0.78806  0.69025  0.10602  1
 F  F6  1  0.80091  0.38782  0.43456  1
 F  F7  1  0.19516  0.63887  0.55712  1
 Fe  Fe1  1  0.57025  0.82487  0.65831  1
 Fe  Fe2  1  0.97219  0.01465  0.98209  1
 Fe  Fe3  1  0.00173  0.66455  0.32866  1
 Fe  Fe4  1  0.97277  0.33353  0.68887  1
 Fe  Fe5  1  0.50665  0.16773  0.32140  1
 Fe  Fe6  1  0.50061  0.49042  0.01774  1
 O  O1  1  0.28701  0.46138  0.23645  1
 O  O2  1  0.69689  0.20616  0.10371  1
 O  O3  1  0.79631  0.03030  0.76109  1
 O  O4  1  0.70838  0.87798  0.41500  1
 O  O5  1  0.69355  0.53071  0.78919  1
