CIF file written using JARVIS-Tools package.
data_CaBeBr
_symmetry_space_group_name_H-M  'Pmm2'
_cell_length_a       6.54074
_cell_length_b       3.82682
_cell_length_c       3.7158
_cell_angle_alpha    90
_cell_angle_beta     90
_cell_angle_gamma    89.9862

_symmetry_Int_Tables_number  25
_chemical_formula_structural  CaBeBr
_chemical_formula_sum  CaBeBr
_cell_volume  93.00736710074165
_cell_formula_units_Z  1
loop_
  _symmetry_equiv_pos_site_id
 _symmetry_equiv_pos_as_xyz
 1  'x, y, z'
loop_
 _atom_site_type_symbol
 _atom_site_label
 _atom_site_symmetry_multiplicity
 _atom_site_fract_x
 _atom_site_fract_y
 _atom_site_fract_z
 _atom_site_fract_occupancy
 Be  Be1  1  0.08057  -0.07618  0.00000  1
 Br  Br1  1  0.41403  -0.07580  0.00000  1
 Ca  Ca1  1  -0.24527  0.42401  0.00000  1
