CIF file written using JARVIS-Tools package.
data_Mn3O2F4
_symmetry_space_group_name_H-M  'P2_1/c'
_cell_length_a       4.69493
_cell_length_b       4.63579
_cell_length_c       9.55321
_cell_angle_alpha    89.9999
_cell_angle_beta     89.4898
_cell_angle_gamma    90

_symmetry_Int_Tables_number  14
_chemical_formula_structural  Mn3O2F4
_chemical_formula_sum  Mn6O4F8
_cell_volume  207.9144614541068
_cell_formula_units_Z  2
loop_
  _symmetry_equiv_pos_site_id
 _symmetry_equiv_pos_as_xyz
 1  'x, y, z'
loop_
 _atom_site_type_symbol
 _atom_site_label
 _atom_site_symmetry_multiplicity
 _atom_site_fract_x
 _atom_site_fract_y
 _atom_site_fract_z
 _atom_site_fract_occupancy
 F  F1  1  0.81449  0.20213  0.82109  1
 F  F2  1  0.68551  0.70213  0.34558  1
 F  F3  1  0.31449  0.29787  0.32109  1
 F  F4  1  0.28340  0.26307  0.99523  1
 F  F5  1  0.18551  0.79787  0.84558  1
 F  F6  1  0.21659  0.76306  0.17143  1
 F  F7  1  0.78340  0.23694  0.49523  1
 F  F8  1  0.71659  0.73694  0.67143  1
 Mn  Mn1  1  0.96273  0.97234  0.00845  1
 Mn  Mn2  1  0.46273  0.52766  0.50845  1
 Mn  Mn3  1  0.53727  0.47234  0.15821  1
 Mn  Mn4  1  0.50000  0.50000  0.83333  1
 Mn  Mn5  1  0.03727  0.02766  0.65821  1
 Mn  Mn6  1  -0.00000  -0.00000  0.33333  1
 O  O1  1  0.31057  0.33238  0.66875  1
 O  O2  1  0.81057  0.16762  0.16876  1
 O  O3  1  0.68943  0.66762  0.99791  1
 O  O4  1  0.18943  0.83238  0.49791  1
