CIF file written using JARVIS-Tools package.
data_MgSnO3
_symmetry_space_group_name_H-M  'Amm2'
_cell_length_a       3.03589
_cell_length_b       4.63924
_cell_length_c       4.63924
_cell_angle_alpha    90.1988
_cell_angle_beta     90
_cell_angle_gamma    90

_symmetry_Int_Tables_number  38
_chemical_formula_structural  MgSnO3
_chemical_formula_sum  MgSnO3
_cell_volume  65.33946034524718
_cell_formula_units_Z  1
loop_
  _symmetry_equiv_pos_site_id
 _symmetry_equiv_pos_as_xyz
 1  'x, y, z'
loop_
 _atom_site_type_symbol
 _atom_site_label
 _atom_site_symmetry_multiplicity
 _atom_site_fract_x
 _atom_site_fract_y
 _atom_site_fract_z
 _atom_site_fract_occupancy
 Mg  Mg1  1  0.00000  0.89800  0.89800  1
 O  O1  1  0.50000  0.10537  0.10537  1
 O  O2  1  0.50000  -0.00361  0.60020  1
 O  O3  1  0.50000  0.60020  -0.00361  1
 Sn  Sn1  1  0.50000  0.42084  0.42084  1
