CIF file written using JARVIS-Tools package.
data_MgSnO
_symmetry_space_group_name_H-M  'Pm'
_cell_length_a       3.28472
_cell_length_b       6.56465
_cell_length_c       3.31916
_cell_angle_alpha    90
_cell_angle_beta     90
_cell_angle_gamma    60.6702

_symmetry_Int_Tables_number  6
_chemical_formula_structural  MgSnO
_chemical_formula_sum  MgSnO
_cell_volume  62.396759682433874
_cell_formula_units_Z  1
loop_
  _symmetry_equiv_pos_site_id
 _symmetry_equiv_pos_as_xyz
 1  'x, y, z'
loop_
 _atom_site_type_symbol
 _atom_site_label
 _atom_site_symmetry_multiplicity
 _atom_site_fract_x
 _atom_site_fract_y
 _atom_site_fract_z
 _atom_site_fract_occupancy
 Mg  Mg1  1  -0.02559  -0.11867  0.00000  1
 O  O1  1  0.31063  0.04854  0.00000  1
 Sn  Sn1  1  -0.06181  0.42116  0.00000  1
