CIF file written using JARVIS-Tools package.
data_LiCu
_symmetry_space_group_name_H-M  'P-1'
_cell_length_a       4.52932
_cell_length_b       4.63212
_cell_length_c       2.566
_cell_angle_alpha    89.2205
_cell_angle_beta     106.159
_cell_angle_gamma    82.1226

_symmetry_Int_Tables_number  2
_chemical_formula_structural  LiCu
_chemical_formula_sum  Li2Cu2
_cell_volume  51.144892862171076
_cell_formula_units_Z  2
loop_
  _symmetry_equiv_pos_site_id
 _symmetry_equiv_pos_as_xyz
 1  'x, y, z'
loop_
 _atom_site_type_symbol
 _atom_site_label
 _atom_site_symmetry_multiplicity
 _atom_site_fract_x
 _atom_site_fract_y
 _atom_site_fract_z
 _atom_site_fract_occupancy
 Cu  Cu1  1  0.01054  0.48575  0.48788  1
 Cu  Cu2  1  0.48549  0.24657  0.22716  1
 Li  Li1  1  0.98159  0.00506  -0.02436  1
 Li  Li2  1  0.51466  0.72719  0.73954  1
