CIF file written using JARVIS-Tools package.
data_Li3Fe5Co2O12
_symmetry_space_group_name_H-M  'C2'
_cell_length_a       4.95234
_cell_length_b       4.95234
_cell_length_c       9.51425
_cell_angle_alpha    84.8863
_cell_angle_beta     84.8864
_cell_angle_gamma    120.876

_symmetry_Int_Tables_number  5
_chemical_formula_structural  Li3Fe5Co2O12
_chemical_formula_sum  Li3Fe5Co2O2
_cell_volume  196.97887950823855
_cell_formula_units_Z  1
loop_
  _symmetry_equiv_pos_site_id
 _symmetry_equiv_pos_as_xyz
 1  'x, y, z'
loop_
 _atom_site_type_symbol
 _atom_site_label
 _atom_site_symmetry_multiplicity
 _atom_site_fract_x
 _atom_site_fract_y
 _atom_site_fract_z
 _atom_site_fract_occupancy
 Co  Co1  1  0.74675  0.25325  0.50000  1
 Co  Co2  1  0.24944  0.75056  -0.00000  1
 Fe  Fe1  1  0.92348  0.07652  0.00000  1
 Fe  Fe2  1  -0.00558  0.51829  0.73637  1
 Fe  Fe3  1  0.48171  0.00558  0.26363  1
 Fe  Fe4  1  0.58250  0.41750  -0.00000  1
 Fe  Fe5  1  0.42301  0.57699  0.50000  1
 Li  Li1  1  0.67302  0.84186  0.74413  1
 Li  Li2  1  0.15814  0.32698  0.25587  1
 Li  Li3  1  0.07675  0.92325  0.50000  1
 O  O1  1  0.28537  0.46258  0.89208  1
 O  O2  1  0.63769  0.12515  0.89279  1
 O  O3  1  0.70557  0.53612  0.61488  1
 O  O4  1  0.95328  0.77760  0.88681  1
 O  O5  1  0.87485  0.36231  0.10721  1
 O  O6  1  0.03561  0.22989  0.61474  1
 O  O7  1  0.53742  0.71463  0.10792  1
 O  O8  1  0.22240  0.04672  0.11319  1
 O  O9  1  0.39443  0.86025  0.61310  1
 O  O10  1  0.46388  0.29443  0.38512  1
 O  O11  1  0.77011  0.96439  0.38526  1
 O  O12  1  0.13975  0.60557  0.38690  1
