CIF file written using JARVIS-Tools package.
data_AgAsS
_symmetry_space_group_name_H-M  'Pmn2_1'
_cell_length_a       3.75422
_cell_length_b       5.30431
_cell_length_c       6.42681
_cell_angle_alpha    90
_cell_angle_beta     90
_cell_angle_gamma    90

_symmetry_Int_Tables_number  31
_chemical_formula_structural  AgAsS
_chemical_formula_sum  Ag2As2S2
_cell_volume  127.9806785066306
_cell_formula_units_Z  2
loop_
  _symmetry_equiv_pos_site_id
 _symmetry_equiv_pos_as_xyz
 1  'x, y, z'
loop_
 _atom_site_type_symbol
 _atom_site_label
 _atom_site_symmetry_multiplicity
 _atom_site_fract_x
 _atom_site_fract_y
 _atom_site_fract_z
 _atom_site_fract_occupancy
 Ag  Ag1  1  0.50000  0.76201  0.00119  1
 Ag  Ag2  1  0.00000  0.23799  0.50119  1
 As  As1  1  0.50000  0.57745  0.38878  1
 As  As2  1  0.00000  0.42255  0.88878  1
 S  S1  1  0.50000  0.90154  0.60389  1
 S  S2  1  0.00000  0.09846  0.10389  1
