CIF file written using JARVIS-Tools package.
data_Li2CoBO4
_symmetry_space_group_name_H-M  'C222_1'
_cell_length_a       4.995
_cell_length_b       4.995
_cell_length_c       6.01008
_cell_angle_alpha    90
_cell_angle_beta     90
_cell_angle_gamma    88.1755

_symmetry_Int_Tables_number  20
_chemical_formula_structural  Li2CoBO4
_chemical_formula_sum  Li4Co2B2O8
_cell_volume  149.87557020967452
_cell_formula_units_Z  2
loop_
  _symmetry_equiv_pos_site_id
 _symmetry_equiv_pos_as_xyz
 1  'x, y, z'
loop_
 _atom_site_type_symbol
 _atom_site_label
 _atom_site_symmetry_multiplicity
 _atom_site_fract_x
 _atom_site_fract_y
 _atom_site_fract_z
 _atom_site_fract_occupancy
 B  B1  1  0.31691  0.68310  -0.00000  1
 B  B2  1  0.68310  0.31691  0.50000  1
 Co  Co1  1  0.81802  0.81802  0.75000  1
 Co  Co2  1  0.18198  0.18198  0.25000  1
 Li  Li1  1  0.32518  0.67482  0.50000  1
 Li  Li2  1  0.67482  0.32518  -0.00000  1
 Li  Li3  1  0.19118  0.19118  0.75000  1
 Li  Li4  1  0.80882  0.80882  0.25000  1
 O  O1  1  0.20465  0.80690  0.20603  1
 O  O2  1  0.19310  0.79535  0.79397  1
 O  O3  1  0.79535  0.19310  0.70603  1
 O  O4  1  0.80690  0.20465  0.29397  1
 O  O5  1  0.27965  0.38718  0.00689  1
 O  O6  1  0.61283  0.72035  0.99311  1
 O  O7  1  0.38718  0.27965  0.49311  1
 O  O8  1  0.72035  0.61283  0.50689  1
