CIF file written using JARVIS-Tools package.
data_LiNbSe2
_symmetry_space_group_name_H-M  'R-3m'
_cell_length_a       7.14
_cell_length_b       7.14
_cell_length_c       7.14
_cell_angle_alpha    28.8836
_cell_angle_beta     28.8836
_cell_angle_gamma    28.8836

_symmetry_Int_Tables_number  166
_chemical_formula_structural  LiNbSe2
_chemical_formula_sum  LiNbSe2
_cell_volume  75.10431121298666
_cell_formula_units_Z  1
loop_
  _symmetry_equiv_pos_site_id
 _symmetry_equiv_pos_as_xyz
 1  'x, y, z'
loop_
 _atom_site_type_symbol
 _atom_site_label
 _atom_site_symmetry_multiplicity
 _atom_site_fract_x
 _atom_site_fract_y
 _atom_site_fract_z
 _atom_site_fract_occupancy
 Li  Li1  1  0.50000  0.50000  0.50000  1
 Nb  Nb1  1  0.00000  0.00000  0.00000  1
 Se  Se1  1  0.74958  0.74958  0.74958  1
 Se  Se2  1  0.25042  0.25042  0.25042  1
