CIF file written using JARVIS-Tools package.
data_MgTaO3
_symmetry_space_group_name_H-M  'Cm'
_cell_length_a       4.04735
_cell_length_b       4.04735
_cell_length_c       4.02435
_cell_angle_alpha    96.3991
_cell_angle_beta     96.3991
_cell_angle_gamma    93.4979

_symmetry_Int_Tables_number  8
_chemical_formula_structural  MgTaO3
_chemical_formula_sum  MgTaO3
_cell_volume  64.92404542594066
_cell_formula_units_Z  1
loop_
  _symmetry_equiv_pos_site_id
 _symmetry_equiv_pos_as_xyz
 1  'x, y, z'
loop_
 _atom_site_type_symbol
 _atom_site_label
 _atom_site_symmetry_multiplicity
 _atom_site_fract_x
 _atom_site_fract_y
 _atom_site_fract_z
 _atom_site_fract_occupancy
 Mg  Mg1  1  0.47459  0.47459  0.68047  1
 O  O1  1  0.53147  0.01855  0.90918  1
 O  O2  1  0.01855  0.53147  0.90918  1
 O  O3  1  0.05799  0.05799  0.43825  1
 Ta  Ta1  1  0.03076  0.03076  0.94957  1
