CIF file written using JARVIS-Tools package.
data_Li3Fe3O8
_symmetry_space_group_name_H-M  'R-3m'
_cell_length_a       5.77832
_cell_length_b       5.77832
_cell_length_c       5.77832
_cell_angle_alpha    58.2904
_cell_angle_beta     58.2904
_cell_angle_gamma    58.2904

_symmetry_Int_Tables_number  166
_chemical_formula_structural  Li3Fe3O8
_chemical_formula_sum  Li3Fe3O8
_cell_volume  131.08176757175323
_cell_formula_units_Z  1
loop_
  _symmetry_equiv_pos_site_id
 _symmetry_equiv_pos_as_xyz
 1  'x, y, z'
loop_
 _atom_site_type_symbol
 _atom_site_label
 _atom_site_symmetry_multiplicity
 _atom_site_fract_x
 _atom_site_fract_y
 _atom_site_fract_z
 _atom_site_fract_occupancy
 Fe  Fe1  1  0.00000  0.50000  -0.00000  1
 Fe  Fe2  1  0.50000  0.00000  -0.00000  1
 Fe  Fe3  1  0.00000  0.00000  0.50000  1
 Li  Li1  1  0.00000  0.00000  0.00000  1
 Li  Li2  1  0.37922  0.37922  0.37922  1
 Li  Li3  1  0.62078  0.62078  0.62078  1
 O  O1  1  0.24920  0.24920  0.78981  1
 O  O2  1  0.78981  0.24920  0.24920  1
 O  O3  1  0.24920  0.78981  0.24920  1
 O  O4  1  0.76171  0.76171  0.76171  1
 O  O5  1  0.75080  0.75080  0.21019  1
 O  O6  1  0.21019  0.75080  0.75080  1
 O  O7  1  0.75080  0.21019  0.75080  1
 O  O8  1  0.23829  0.23829  0.23829  1
