CIF file written using JARVIS-Tools package.
data_LiYO
_symmetry_space_group_name_H-M  'Pm'
_cell_length_a       3.13419
_cell_length_b       7.4972
_cell_length_c       3.43214
_cell_angle_alpha    90
_cell_angle_beta     90
_cell_angle_gamma    52.4346

_symmetry_Int_Tables_number  6
_chemical_formula_structural  LiYO
_chemical_formula_sum  LiYO
_cell_volume  63.92566145205376
_cell_formula_units_Z  1
loop_
  _symmetry_equiv_pos_site_id
 _symmetry_equiv_pos_as_xyz
 1  'x, y, z'
loop_
 _atom_site_type_symbol
 _atom_site_label
 _atom_site_symmetry_multiplicity
 _atom_site_fract_x
 _atom_site_fract_y
 _atom_site_fract_z
 _atom_site_fract_occupancy
 Li  Li1  1  -0.08797  -0.12244  0.00000  1
 O  O1  1  0.08046  0.09733  0.00000  1
 Y  Y1  1  0.22353  0.34125  0.00000  1
