CIF file written using JARVIS-Tools package.
data_LiVOF3
_symmetry_space_group_name_H-M  'P2_1/c'
_cell_length_a       7.18686
_cell_length_b       5.42396
_cell_length_c       8.71779
_cell_angle_alpha    67.0885
_cell_angle_beta     90
_cell_angle_gamma    90

_symmetry_Int_Tables_number  14
_chemical_formula_structural  LiVOF3
_chemical_formula_sum  Li4V4O4F2
_cell_volume  313.02001513862194
_cell_formula_units_Z  4
loop_
  _symmetry_equiv_pos_site_id
 _symmetry_equiv_pos_as_xyz
 1  'x, y, z'
loop_
 _atom_site_type_symbol
 _atom_site_label
 _atom_site_symmetry_multiplicity
 _atom_site_fract_x
 _atom_site_fract_y
 _atom_site_fract_z
 _atom_site_fract_occupancy
 F  F1  1  0.67223  0.07822  0.03885  1
 F  F2  1  0.16893  0.36846  0.50932  1
 F  F3  1  0.66893  0.63154  -0.00932  1
 F  F4  1  0.94426  0.53806  0.19984  1
 F  F5  1  0.05574  0.46194  0.80016  1
 F  F6  1  0.33107  0.36846  0.00932  1
 F  F7  1  0.83107  0.63154  0.49068  1
 F  F8  1  0.55574  0.53806  0.69984  1
 F  F9  1  0.17223  0.92178  0.46115  1
 F  F10  1  0.32777  0.92178  0.96115  1
 F  F11  1  0.82777  0.07822  0.53885  1
 F  F12  1  0.44426  0.46194  0.30016  1
 Li  Li1  1  0.44030  0.70329  0.86283  1
 Li  Li2  1  0.55970  0.29671  0.13717  1
 Li  Li3  1  0.94030  0.29671  0.63717  1
 Li  Li4  1  0.05970  0.70329  0.36283  1
 O  O1  1  0.02014  0.02592  0.14204  1
 O  O2  1  0.47986  0.02592  0.64204  1
 O  O3  1  0.97986  0.97408  0.85796  1
 O  O4  1  0.52014  0.97408  0.35796  1
 V  V1  1  0.35210  0.15589  0.46065  1
 V  V2  1  0.14790  0.15589  0.96065  1
 V  V3  1  0.85210  0.84411  0.03935  1
 V  V4  1  0.64790  0.84411  0.53935  1
