CIF file written using JARVIS-Tools package.
data_BeS2
_symmetry_space_group_name_H-M  'P1'
_cell_length_a       3.57665
_cell_length_b       5.34703
_cell_length_c       5.06535
_cell_angle_alpha    40.0467
_cell_angle_beta     75.2843
_cell_angle_gamma    67.3838

_symmetry_Int_Tables_number  1
_chemical_formula_structural  BeS2
_chemical_formula_sum  BeS2
_cell_volume  57.40258929103409
_cell_formula_units_Z  1
loop_
  _symmetry_equiv_pos_site_id
 _symmetry_equiv_pos_as_xyz
 1  'x, y, z'
loop_
 _atom_site_type_symbol
 _atom_site_label
 _atom_site_symmetry_multiplicity
 _atom_site_fract_x
 _atom_site_fract_y
 _atom_site_fract_z
 _atom_site_fract_occupancy
 Be  Be1  1  0.00645  0.93411  0.96496  1
 S  S1  1  0.90802  0.37589  0.33312  1
 S  S2  1  0.45180  0.84075  0.24857  1
