CIF file written using JARVIS-Tools package.
data_V2O3F3
_symmetry_space_group_name_H-M  'P2'
_cell_length_a       5.07841
_cell_length_b       5.28885
_cell_length_c       7.19029
_cell_angle_alpha    85.7661
_cell_angle_beta     90
_cell_angle_gamma    90

_symmetry_Int_Tables_number  3
_chemical_formula_structural  V2O3F3
_chemical_formula_sum  V4O6F6
_cell_volume  192.59638930967088
_cell_formula_units_Z  2
loop_
  _symmetry_equiv_pos_site_id
 _symmetry_equiv_pos_as_xyz
 1  'x, y, z'
loop_
 _atom_site_type_symbol
 _atom_site_label
 _atom_site_symmetry_multiplicity
 _atom_site_fract_x
 _atom_site_fract_y
 _atom_site_fract_z
 _atom_site_fract_occupancy
 F  F1  1  0.09997  -0.00000  0.50000  1
 F  F2  1  0.30791  0.17884  0.80352  1
 F  F3  1  0.30791  0.82116  0.19648  1
 F  F4  1  0.58373  0.50000  -0.00000  1
 F  F5  1  0.68469  0.19654  0.30487  1
 F  F6  1  0.68469  0.80346  0.69513  1
 O  O1  1  0.18056  0.31449  0.20021  1
 O  O2  1  0.18056  0.68551  0.79979  1
 O  O3  1  0.38971  0.50000  0.50000  1
 O  O4  1  0.79576  0.30490  0.69808  1
 O  O5  1  0.79576  0.69510  0.30192  1
 O  O6  1  0.91351  0.00000  0.00000  1
 V  V1  1  0.52513  0.53436  0.27009  1
 V  V2  1  0.52513  0.46564  0.72991  1
 V  V3  1  0.01249  0.05003  0.23179  1
 V  V4  1  0.01249  0.94997  0.76821  1
