CIF file written using JARVIS-Tools package.
data_MnF2
_symmetry_space_group_name_H-M  'Pmmm'
_cell_length_a       3.85395
_cell_length_b       2.95751
_cell_length_c       3.83222
_cell_angle_alpha    90
_cell_angle_beta     90.0057
_cell_angle_gamma    90

_symmetry_Int_Tables_number  47
_chemical_formula_structural  MnF2
_chemical_formula_sum  MnF2
_cell_volume  43.680017006653465
_cell_formula_units_Z  1
loop_
  _symmetry_equiv_pos_site_id
 _symmetry_equiv_pos_as_xyz
 1  'x, y, z'
loop_
 _atom_site_type_symbol
 _atom_site_label
 _atom_site_symmetry_multiplicity
 _atom_site_fract_x
 _atom_site_fract_y
 _atom_site_fract_z
 _atom_site_fract_occupancy
 F  F1  1  -0.36669  0.00000  -0.53332  1
 F  F2  1  0.13334  0.00000  0.96665  1
 Mn  Mn1  1  0.63334  0.00000  -0.03333  1
