CIF file written using JARVIS-Tools package.
data_V2OF7
_symmetry_space_group_name_H-M  'Pc'
_cell_length_a       5.26295
_cell_length_b       5.63996
_cell_length_c       8.95725
_cell_angle_alpha    83.0805
_cell_angle_beta     90
_cell_angle_gamma    90

_symmetry_Int_Tables_number  7
_chemical_formula_structural  V2OF7
_chemical_formula_sum  V4O2F4
_cell_volume  263.9399782345503
_cell_formula_units_Z  2
loop_
  _symmetry_equiv_pos_site_id
 _symmetry_equiv_pos_as_xyz
 1  'x, y, z'
loop_
 _atom_site_type_symbol
 _atom_site_label
 _atom_site_symmetry_multiplicity
 _atom_site_fract_x
 _atom_site_fract_y
 _atom_site_fract_z
 _atom_site_fract_occupancy
 F  F1  1  0.12968  -0.16181  0.07822  1
 F  F2  1  -0.05468  0.61152  0.31543  1
 F  F3  1  0.64873  0.64990  0.07606  1
 F  F4  1  0.50567  0.41779  0.34969  1
 F  F5  1  0.49433  0.41779  0.84969  1
 F  F6  1  0.27376  0.31020  0.11749  1
 F  F7  1  0.01225  0.07602  0.79226  1
 F  F8  1  0.74053  0.10441  0.01358  1
 F  F9  1  -0.01225  0.07602  0.29226  1
 F  F10  1  0.72624  0.31020  0.61749  1
 F  F11  1  0.25947  0.10441  0.51358  1
 F  F12  1  0.05468  0.61152  0.81543  1
 F  F13  1  0.35127  0.64990  0.57606  1
 F  F14  1  0.87032  -0.16181  0.57822  1
 O  O1  1  0.53006  0.95885  0.27687  1
 O  O2  1  0.46994  0.95885  0.77687  1
 V  V1  1  0.83645  0.83281  0.17215  1
 V  V2  1  0.16355  0.83281  0.67215  1
 V  V3  1  0.33116  0.17838  0.30147  1
 V  V4  1  0.66884  0.17838  0.80147  1
