CIF file written using JARVIS-Tools package.
data_Li4Nb2Ni3Sn3O16
_symmetry_space_group_name_H-M  'Cm'
_cell_length_a       6.09043
_cell_length_b       6.09044
_cell_length_c       9.76089
_cell_angle_alpha    89.0548
_cell_angle_beta     89.0548
_cell_angle_gamma    60.3689

_symmetry_Int_Tables_number  8
_chemical_formula_structural  Li4Nb2Ni3Sn3O16
_chemical_formula_sum  Li4Nb2Ni3Sn3O6
_cell_volume  314.6587730875133
_cell_formula_units_Z  1
loop_
  _symmetry_equiv_pos_site_id
 _symmetry_equiv_pos_as_xyz
 1  'x, y, z'
loop_
 _atom_site_type_symbol
 _atom_site_label
 _atom_site_symmetry_multiplicity
 _atom_site_fract_x
 _atom_site_fract_y
 _atom_site_fract_z
 _atom_site_fract_occupancy
 Li  Li1  1  0.67662  0.67662  0.89767  1
 Li  Li2  1  0.98248  0.98248  0.98556  1
 Li  Li3  1  0.99136  0.99136  0.49966  1
 Li  Li4  1  0.33283  0.33283  0.40683  1
 Nb  Nb1  1  0.67484  0.67484  0.50013  1
 Nb  Nb2  1  0.35155  0.35155  0.97798  1
 Ni  Ni1  1  0.66120  0.17125  0.71246  1
 Ni  Ni2  1  0.17125  0.66120  0.71246  1
 Ni  Ni3  1  0.82927  0.82927  0.21446  1
 O  O1  1  0.51276  0.51276  0.34232  1
 O  O2  1  0.83437  0.33520  0.58798  1
 O  O3  1  0.48952  0.48952  0.84710  1
 O  O4  1  0.66801  0.66801  0.10015  1
 O  O5  1  0.99486  0.99486  0.31391  1
 O  O6  1  0.99607  0.99607  0.80279  1
 O  O7  1  0.33520  0.83437  0.58798  1
 O  O8  1  0.51662  0.96016  0.34594  1
 O  O9  1  0.66350  0.16972  0.09283  1
 O  O10  1  0.48085  0.03904  0.85104  1
 O  O11  1  0.03904  0.48085  0.85104  1
 O  O12  1  0.33675  0.33675  0.60877  1
 O  O13  1  0.96016  0.51662  0.34594  1
 O  O14  1  0.16126  0.16126  0.09144  1
 O  O15  1  0.82894  0.82894  0.59427  1
 O  O16  1  0.16972  0.66350  0.09283  1
 Sn  Sn1  1  0.33772  0.83290  0.21418  1
 Sn  Sn2  1  0.83290  0.33772  0.21418  1
 Sn  Sn3  1  0.17041  0.17041  0.71592  1
