CIF file written using JARVIS-Tools package.
data_Li4MnFe3P4O16
_symmetry_space_group_name_H-M  'Pm'
_cell_length_a       6.02032
_cell_length_b       4.71143
_cell_length_c       10.3387
_cell_angle_alpha    89.8983
_cell_angle_beta     90
_cell_angle_gamma    90

_symmetry_Int_Tables_number  6
_chemical_formula_structural  Li4MnFe3P4O16
_chemical_formula_sum  Li4MnFe3P4O6
_cell_volume  293.24958804504564
_cell_formula_units_Z  1
loop_
  _symmetry_equiv_pos_site_id
 _symmetry_equiv_pos_as_xyz
 1  'x, y, z'
loop_
 _atom_site_type_symbol
 _atom_site_label
 _atom_site_symmetry_multiplicity
 _atom_site_fract_x
 _atom_site_fract_y
 _atom_site_fract_z
 _atom_site_fract_occupancy
 Fe  Fe1  1  0.00000  0.47312  0.78222  1
 Fe  Fe2  1  0.00000  0.02489  0.28065  1
 Fe  Fe3  1  0.50000  0.52766  0.21921  1
 Li  Li1  1  0.24968  0.00217  0.00239  1
 Li  Li2  1  0.75032  0.00217  0.00239  1
 Li  Li3  1  0.24903  0.49829  0.49831  1
 Li  Li4  1  0.75097  0.49829  0.49831  1
 Mn  Mn1  1  0.50000  0.97770  0.71853  1
 O  O1  1  0.50000  0.74842  0.90882  1
 O  O2  1  0.20420  0.77502  0.66281  1
 O  O3  1  0.79580  0.77502  0.66281  1
 O  O4  1  0.00000  0.71100  0.95556  1
 O  O5  1  0.29500  0.29059  0.83746  1
 O  O6  1  0.00000  0.25609  0.09481  1
 O  O7  1  0.50000  0.21123  0.54212  1
 O  O8  1  0.70500  0.29059  0.83746  1
 O  O9  1  0.00000  0.78916  0.45282  1
 O  O10  1  0.79496  0.71606  0.16565  1
 O  O11  1  0.29462  0.21552  0.33258  1
 O  O12  1  0.70538  0.21552  0.33258  1
 O  O13  1  0.00000  0.23843  0.59515  1
 O  O14  1  0.20504  0.71606  0.16565  1
 O  O15  1  0.50000  0.75609  0.40421  1
 O  O16  1  0.50000  0.29150  0.04745  1
 P  P1  1  0.50000  0.42331  0.90957  1
 P  P2  1  0.00000  0.91285  0.59243  1
 P  P3  1  0.50000  0.08156  0.40398  1
 P  P4  1  0.00000  0.58166  0.09408  1
