CIF file written using JARVIS-Tools package.
data_VF4
_symmetry_space_group_name_H-M  'R-3'
_cell_length_a       7.43126
_cell_length_b       7.43126
_cell_length_c       7.43126
_cell_angle_alpha    97.4012
_cell_angle_beta     97.4012
_cell_angle_gamma    97.4012

_symmetry_Int_Tables_number  148
_chemical_formula_structural  VF4
_chemical_formula_sum  V6F24
_cell_volume  399.1351459954158
_cell_formula_units_Z  6
loop_
  _symmetry_equiv_pos_site_id
 _symmetry_equiv_pos_as_xyz
 1  'x, y, z'
loop_
 _atom_site_type_symbol
 _atom_site_label
 _atom_site_symmetry_multiplicity
 _atom_site_fract_x
 _atom_site_fract_y
 _atom_site_fract_z
 _atom_site_fract_occupancy
 F  F1  1  0.23692  0.04513  0.31040  1
 F  F2  1  0.53100  0.89760  0.29250  1
 F  F3  1  0.90616  0.96218  0.35445  1
 F  F4  1  0.76308  0.95487  0.68960  1
 F  F5  1  0.35445  0.90616  0.96218  1
 F  F6  1  0.03782  0.64555  0.09384  1
 F  F7  1  0.10240  0.70750  0.46900  1
 F  F8  1  0.44689  0.72913  0.65992  1
 F  F9  1  0.68960  0.76308  0.95487  1
 F  F10  1  0.09384  0.03782  0.64555  1
 F  F11  1  0.72913  0.65992  0.44689  1
 F  F12  1  0.34008  0.55311  0.27087  1
 F  F13  1  0.29250  0.53100  0.89760  1
 F  F14  1  0.55311  0.27087  0.34008  1
 F  F15  1  0.46900  0.10240  0.70750  1
 F  F16  1  0.64555  0.09384  0.03782  1
 F  F17  1  0.70750  0.46900  0.10240  1
 F  F18  1  0.89760  0.29250  0.53100  1
 F  F19  1  0.96218  0.35445  0.90616  1
 F  F20  1  0.31040  0.23692  0.04513  1
 F  F21  1  0.65992  0.44689  0.72913  1
 F  F22  1  0.27087  0.34008  0.55311  1
 F  F23  1  0.04513  0.31040  0.23692  1
 F  F24  1  0.95487  0.68960  0.76308  1
 V  V1  1  0.44899  0.07597  0.19171  1
 V  V2  1  0.07597  0.19171  0.44899  1
 V  V3  1  0.80829  0.55101  0.92403  1
 V  V4  1  0.19171  0.44899  0.07597  1
 V  V5  1  0.92403  0.80829  0.55101  1
 V  V6  1  0.55101  0.92403  0.80829  1
