CIF file written using JARVIS-Tools package.
data_NaSn
_symmetry_space_group_name_H-M  'R-3m'
_cell_length_a       5.22324
_cell_length_b       5.22591
_cell_length_c       5.47064
_cell_angle_alpha    118.591
_cell_angle_beta     118.502
_cell_angle_gamma    59.9923

_symmetry_Int_Tables_number  166
_chemical_formula_structural  NaSn
_chemical_formula_sum  Na2Sn2
_cell_volume  107.84450527400809
_cell_formula_units_Z  2
loop_
  _symmetry_equiv_pos_site_id
 _symmetry_equiv_pos_as_xyz
 1  'x, y, z'
loop_
 _atom_site_type_symbol
 _atom_site_label
 _atom_site_symmetry_multiplicity
 _atom_site_fract_x
 _atom_site_fract_y
 _atom_site_fract_z
 _atom_site_fract_occupancy
 Na  Na1  1  0.08977  0.94732  0.88502  1
 Na  Na2  1  0.58985  0.44734  0.38519  1
 Sn  Sn1  1  0.36060  0.21816  0.69769  1
 Sn  Sn2  1  0.81901  0.67657  0.07264  1
