CIF file written using JARVIS-Tools package.
data_TeO2
_symmetry_space_group_name_H-M  'Pnma'
_cell_length_a       3.89743
_cell_length_b       5.47285
_cell_length_c       8.00177
_cell_angle_alpha    90
_cell_angle_beta     90
_cell_angle_gamma    90

_symmetry_Int_Tables_number  62
_chemical_formula_structural  TeO2
_chemical_formula_sum  Te4O8
_cell_volume  170.67813599831808
_cell_formula_units_Z  4
loop_
  _symmetry_equiv_pos_site_id
 _symmetry_equiv_pos_as_xyz
 1  'x, y, z'
loop_
 _atom_site_type_symbol
 _atom_site_label
 _atom_site_symmetry_multiplicity
 _atom_site_fract_x
 _atom_site_fract_y
 _atom_site_fract_z
 _atom_site_fract_occupancy
 O  O1  1  0.25000  0.12133  -0.00199  1
 O  O2  1  0.25000  0.62133  0.50199  1
 O  O3  1  0.75000  0.87867  0.00199  1
 O  O4  1  0.75000  0.37867  0.49801  1
 O  O5  1  0.25000  0.07654  0.63078  1
 O  O6  1  0.25000  0.57654  0.86922  1
 O  O7  1  0.75000  0.92346  0.36922  1
 O  O8  1  0.75000  0.42346  0.13078  1
 Te  Te1  1  0.25000  0.25533  0.42961  1
 Te  Te2  1  0.25000  0.75533  0.07039  1
 Te  Te3  1  0.75000  0.74467  0.57039  1
 Te  Te4  1  0.75000  0.24467  0.92961  1
