CIF file written using JARVIS-Tools package.
data_Fe10O9F11
_symmetry_space_group_name_H-M  'P1'
_cell_length_a       4.65111
_cell_length_b       4.64314
_cell_length_c       15.1872
_cell_angle_alpha    89.9435
_cell_angle_beta     90.025
_cell_angle_gamma    88.0196

_symmetry_Int_Tables_number  1
_chemical_formula_structural  Fe10O9F11
_chemical_formula_sum  Fe0O9F
_cell_volume  327.783149698457
_cell_formula_units_Z  1
loop_
  _symmetry_equiv_pos_site_id
 _symmetry_equiv_pos_as_xyz
 1  'x, y, z'
loop_
 _atom_site_type_symbol
 _atom_site_label
 _atom_site_symmetry_multiplicity
 _atom_site_fract_x
 _atom_site_fract_y
 _atom_site_fract_z
 _atom_site_fract_occupancy
 F  F1  1  0.80126  0.77494  0.30099  1
 F  F2  1  0.78423  0.80154  0.69806  1
 F  F3  1  0.78559  0.80183  0.50082  1
 F  F4  1  0.81186  0.80552  0.89586  1
 F  F5  1  0.71211  0.28227  0.19906  1
 F  F6  1  0.71116  0.28098  0.39671  1
 F  F7  1  0.71147  0.28542  0.80276  1
 F  F8  1  0.26907  0.72706  0.60228  1
 F  F9  1  0.19922  0.19857  0.10163  1
 F  F10  1  0.19947  0.19965  0.89750  1
 F  F11  1  0.81146  0.80918  0.10400  1
 Fe  Fe1  1  0.99158  0.01160  0.99948  1
 Fe  Fe2  1  0.46535  0.48808  0.29756  1
 Fe  Fe3  1  0.04075  0.97820  0.79015  1
 Fe  Fe4  1  0.97815  0.06577  0.59968  1
 Fe  Fe5  1  0.04996  0.99908  0.40321  1
 Fe  Fe6  1  0.04883  0.98119  0.20926  1
 Fe  Fe7  1  0.49597  0.51419  0.90717  1
 Fe  Fe8  1  0.47982  0.49157  0.50071  1
 Fe  Fe9  1  0.49441  0.51829  0.09203  1
 Fe  Fe10  1  0.46291  0.47808  0.70171  1
 O  O1  1  0.31184  0.68366  0.19795  1
 O  O2  1  0.18929  0.21009  0.69903  1
 O  O3  1  0.19915  0.21487  0.50056  1
 O  O4  1  0.20564  0.17699  0.30087  1
 O  O5  1  0.28946  0.72026  0.99850  1
 O  O6  1  0.66480  0.33245  0.59989  1
 O  O7  1  0.31197  0.67914  0.40401  1
 O  O8  1  0.70268  0.30417  -0.00019  1
 O  O9  1  0.32054  0.68534  0.79877  1
