CIF file written using JARVIS-Tools package.
data_RbBiSe
_symmetry_space_group_name_H-M  'Amm2'
_cell_length_a       6.66381
_cell_length_b       5.36634
_cell_length_c       3.37086
_cell_angle_alpha    90
_cell_angle_beta     90
_cell_angle_gamma    66.324

_symmetry_Int_Tables_number  38
_chemical_formula_structural  RbBiSe
_chemical_formula_sum  RbBiSe
_cell_volume  110.39685367198621
_cell_formula_units_Z  1
loop_
  _symmetry_equiv_pos_site_id
 _symmetry_equiv_pos_as_xyz
 1  'x, y, z'
loop_
 _atom_site_type_symbol
 _atom_site_label
 _atom_site_symmetry_multiplicity
 _atom_site_fract_x
 _atom_site_fract_y
 _atom_site_fract_z
 _atom_site_fract_occupancy
 Bi  Bi1  1  0.04654  -0.19155  0.00000  1
 Rb  Rb1  1  0.46178  0.10137  0.00000  1
 Se  Se1  1  -0.13429  0.39870  0.00000  1
