CIF file written using JARVIS-Tools package.
data_Li2Nd2Ge3
_symmetry_space_group_name_H-M  'Cmcm'
_cell_length_a       9.62889
_cell_length_b       9.62889
_cell_length_c       6.93341
_cell_angle_alpha    90
_cell_angle_beta     90
_cell_angle_gamma    153.337

_symmetry_Int_Tables_number  63
_chemical_formula_structural  Li2Nd2Ge3
_chemical_formula_sum  Li4Nd4Ge6
_cell_volume  288.4653992174112
_cell_formula_units_Z  2
loop_
  _symmetry_equiv_pos_site_id
 _symmetry_equiv_pos_as_xyz
 1  'x, y, z'
loop_
 _atom_site_type_symbol
 _atom_site_label
 _atom_site_symmetry_multiplicity
 _atom_site_fract_x
 _atom_site_fract_y
 _atom_site_fract_z
 _atom_site_fract_occupancy
 Ge  Ge1  1  0.93745  0.06255  0.93442  1
 Ge  Ge2  1  0.06255  0.93745  0.06558  1
 Ge  Ge3  1  0.93745  0.06255  0.56558  1
 Ge  Ge4  1  0.06255  0.93745  0.43442  1
 Ge  Ge5  1  0.72028  0.27972  0.75000  1
 Ge  Ge6  1  0.27972  0.72028  0.25000  1
 Li  Li1  1  0.80889  0.19111  0.43801  1
 Li  Li2  1  0.19111  0.80889  0.56199  1
 Li  Li3  1  0.80889  0.19111  0.06199  1
 Li  Li4  1  0.19111  0.80889  0.93801  1
 Nd  Nd1  1  0.55207  0.44793  0.75000  1
 Nd  Nd2  1  0.44793  0.55207  0.25000  1
 Nd  Nd3  1  0.34261  0.65739  0.75000  1
 Nd  Nd4  1  0.65739  0.34261  0.25000  1
