CIF file written using JARVIS-Tools package.
data_RbCaBr2
_symmetry_space_group_name_H-M  'P4mm'
_cell_length_a       4.29875
_cell_length_b       4.29875
_cell_length_c       8.27671
_cell_angle_alpha    90
_cell_angle_beta     90
_cell_angle_gamma    90

_symmetry_Int_Tables_number  99
_chemical_formula_structural  RbCaBr2
_chemical_formula_sum  RbCaBr2
_cell_volume  152.9471285336714
_cell_formula_units_Z  1
loop_
  _symmetry_equiv_pos_site_id
 _symmetry_equiv_pos_as_xyz
 1  'x, y, z'
loop_
 _atom_site_type_symbol
 _atom_site_label
 _atom_site_symmetry_multiplicity
 _atom_site_fract_x
 _atom_site_fract_y
 _atom_site_fract_z
 _atom_site_fract_occupancy
 Br  Br1  1  0.00000  0.00000  0.37302  1
 Br  Br2  1  0.50000  0.50000  0.04484  1
 Ca  Ca1  1  0.00000  0.00000  0.03277  1
 Rb  Rb1  1  0.50000  0.50000  0.55936  1
