CIF file written using JARVIS-Tools package.
data_Li3MnCoO5
_symmetry_space_group_name_H-M  'P1'
_cell_length_a       4.9128
_cell_length_b       4.98812
_cell_length_c       7.50442
_cell_angle_alpha    71.0465
_cell_angle_beta     70.8929
_cell_angle_gamma    80.4087

_symmetry_Int_Tables_number  1
_chemical_formula_structural  Li3MnCoO5
_chemical_formula_sum  Li6Mn2Co2O0
_cell_volume  163.97309560060904
_cell_formula_units_Z  2
loop_
  _symmetry_equiv_pos_site_id
 _symmetry_equiv_pos_as_xyz
 1  'x, y, z'
loop_
 _atom_site_type_symbol
 _atom_site_label
 _atom_site_symmetry_multiplicity
 _atom_site_fract_x
 _atom_site_fract_y
 _atom_site_fract_z
 _atom_site_fract_occupancy
 Co  Co1  1  0.39885  -0.00120  0.20203  1
 Co  Co2  1  0.79816  -0.00126  0.40322  1
 Li  Li1  1  0.20489  0.99926  0.59152  1
 Li  Li2  1  0.69218  0.49604  0.10687  1
 Li  Li3  1  0.29985  0.50907  0.89323  1
 Li  Li4  1  0.91664  0.51018  0.68785  1
 Li  Li5  1  0.48901  0.50255  0.49849  1
 Li  Li6  1  0.10603  0.48320  0.31335  1
 Mn  Mn1  1  -0.00048  0.00059  0.99978  1
 Mn  Mn2  1  0.60439  0.00194  0.79088  1
 O  O1  1  0.14771  0.77145  0.43349  1
 O  O2  1  0.34376  0.77685  0.04087  1
 O  O3  1  0.05098  0.21801  0.15850  1
 O  O4  1  0.25105  0.22993  0.76919  1
 O  O5  1  0.65778  0.22327  0.95299  1
 O  O6  1  0.82772  0.23010  0.55735  1
 O  O7  1  0.46467  0.22414  0.34278  1
 O  O8  1  0.56714  0.77116  0.65099  1
 O  O9  1  0.74745  0.78135  0.24526  1
 O  O10  1  0.93220  0.77338  0.86136  1
