CIF file written using JARVIS-Tools package.
data_Tb4Sb6Rh7
_symmetry_space_group_name_H-M  'Im-3m'
_cell_length_a       7.61913
_cell_length_b       7.61913
_cell_length_c       7.61912
_cell_angle_alpha    109.471
_cell_angle_beta     109.471
_cell_angle_gamma    109.471

_symmetry_Int_Tables_number  229
_chemical_formula_structural  Tb4Sb6Rh7
_chemical_formula_sum  Tb4Sb6Rh7
_cell_volume  340.4807151529725
_cell_formula_units_Z  1
loop_
  _symmetry_equiv_pos_site_id
 _symmetry_equiv_pos_as_xyz
 1  'x, y, z'
loop_
 _atom_site_type_symbol
 _atom_site_label
 _atom_site_symmetry_multiplicity
 _atom_site_fract_x
 _atom_site_fract_y
 _atom_site_fract_z
 _atom_site_fract_occupancy
 Rh  Rh1  1  0.75000  0.25000  0.50000  1
 Rh  Rh2  1  0.25000  0.75000  0.50000  1
 Rh  Rh3  1  0.75000  0.50000  0.25000  1
 Rh  Rh4  1  0.50000  0.75000  0.25000  1
 Rh  Rh5  1  0.00000  0.00000  0.00000  1
 Rh  Rh6  1  0.50000  0.25000  0.75000  1
 Rh  Rh7  1  0.25000  0.50000  0.75000  1
 Sb  Sb1  1  0.68361  0.68361  0.00000  1
 Sb  Sb2  1  -0.00000  0.31639  0.31639  1
 Sb  Sb3  1  0.31639  -0.00000  0.31639  1
 Sb  Sb4  1  0.00000  0.68361  0.68361  1
 Sb  Sb5  1  0.31639  0.31639  -0.00000  1
 Sb  Sb6  1  0.68361  0.00000  0.68361  1
 Tb  Tb1  1  0.50000  0.50000  0.50000  1
 Tb  Tb2  1  0.00000  0.00000  0.50000  1
 Tb  Tb3  1  0.00000  0.50000  0.00000  1
 Tb  Tb4  1  0.50000  0.00000  -0.00000  1
