CIF file written using JARVIS-Tools package.
data_Rb2CdBr
_symmetry_space_group_name_H-M  'Immm'
_cell_length_a       10.1019
_cell_length_b       10.1019
_cell_length_c       10.1019
_cell_angle_alpha    150.546
_cell_angle_beta     42.4657
_cell_angle_gamma    150.104

_symmetry_Int_Tables_number  71
_chemical_formula_structural  Rb2CdBr
_chemical_formula_sum  Rb2CdBr
_cell_volume  252.0333690038905
_cell_formula_units_Z  1
loop_
  _symmetry_equiv_pos_site_id
 _symmetry_equiv_pos_as_xyz
 1  'x, y, z'
loop_
 _atom_site_type_symbol
 _atom_site_label
 _atom_site_symmetry_multiplicity
 _atom_site_fract_x
 _atom_site_fract_y
 _atom_site_fract_z
 _atom_site_fract_occupancy
 Br  Br1  1  0.00000  0.00000  0.00000  1
 Cd  Cd1  1  0.50000  0.00000  0.50000  1
 Rb  Rb1  1  0.16328  -0.00000  0.16328  1
 Rb  Rb2  1  0.83672  -0.00000  0.83672  1
