CIF file written using JARVIS-Tools package.
data_ZrNbO4
_symmetry_space_group_name_H-M  'C2/m'
_cell_length_a       5.48756
_cell_length_b       5.48756
_cell_length_c       5.62813
_cell_angle_alpha    120.742
_cell_angle_beta     120.742
_cell_angle_gamma    34.3466

_symmetry_Int_Tables_number  12
_chemical_formula_structural  ZrNbO4
_chemical_formula_sum  ZrNbO4
_cell_volume  80.78453983865738
_cell_formula_units_Z  1
loop_
  _symmetry_equiv_pos_site_id
 _symmetry_equiv_pos_as_xyz
 1  'x, y, z'
loop_
 _atom_site_type_symbol
 _atom_site_label
 _atom_site_symmetry_multiplicity
 _atom_site_fract_x
 _atom_site_fract_y
 _atom_site_fract_z
 _atom_site_fract_occupancy
 Nb  Nb1  1  0.50000  0.50000  0.50000  1
 O  O1  1  0.89051  0.89051  0.22797  1
 O  O2  1  0.60899  0.60899  0.27905  1
 O  O3  1  0.39101  0.39101  0.72095  1
 O  O4  1  0.10949  0.10949  0.77203  1
 Zr  Zr1  1  0.00000  0.00000  0.00000  1
