CIF file written using JARVIS-Tools package.
data_Li7Mn4CoO12
_symmetry_space_group_name_H-M  'Cm'
_cell_length_a       6.3709
_cell_length_b       6.3709
_cell_length_c       11.6958
_cell_angle_alpha    75.8933
_cell_angle_beta     75.8933
_cell_angle_gamma    25.796

_symmetry_Int_Tables_number  8
_chemical_formula_structural  Li7Mn4CoO12
_chemical_formula_sum  Li7Mn4CoO2
_cell_volume  200.01984432176104
_cell_formula_units_Z  1
loop_
  _symmetry_equiv_pos_site_id
 _symmetry_equiv_pos_as_xyz
 1  'x, y, z'
loop_
 _atom_site_type_symbol
 _atom_site_label
 _atom_site_symmetry_multiplicity
 _atom_site_fract_x
 _atom_site_fract_y
 _atom_site_fract_z
 _atom_site_fract_occupancy
 Co  Co1  1  0.66704  0.66704  0.83028  1
 Li  Li1  1  0.33067  0.33067  0.67506  1
 Li  Li2  1  0.67650  0.67650  0.59694  1
 Li  Li3  1  -0.01006  -0.01006  0.74726  1
 Li  Li4  1  0.66999  0.66999  0.07434  1
 Li  Li5  1  0.33300  0.33300  0.42804  1
 Li  Li6  1  0.00038  0.00038  0.25220  1
 Li  Li7  1  0.32966  0.32966  0.89911  1
 Mn  Mn1  1  -0.00089  -0.00089  0.99878  1
 Mn  Mn2  1  0.99533  0.99533  0.50474  1
 Mn  Mn3  1  0.33347  0.33347  0.16706  1
 Mn  Mn4  1  0.67007  0.67007  0.33127  1
 O  O1  1  0.50023  0.50023  0.88750  1
 O  O2  1  0.50944  0.50944  0.38092  1
 O  O3  1  0.17097  0.17097  0.21422  1
 O  O4  1  0.83640  0.83640  0.05234  1
 O  O5  1  0.50574  0.50574  0.60876  1
 O  O6  1  0.16575  0.16575  0.44459  1
 O  O7  1  0.15685  0.15685  0.95208  1
 O  O8  1  0.83209  0.83209  0.28238  1
 O  O9  1  0.49604  0.49604  0.11725  1
 O  O10  1  0.16172  0.16172  0.72487  1
 O  O11  1  0.82266  0.82266  0.79447  1
 O  O12  1  0.84697  0.84697  0.53554  1
