CIF file written using JARVIS-Tools package.
data_As2C
_symmetry_space_group_name_H-M  'C2'
_cell_length_a       4.74285
_cell_length_b       6.5853
_cell_length_c       2.99755
_cell_angle_alpha    63.124
_cell_angle_beta     108.258
_cell_angle_gamma    133.898

_symmetry_Int_Tables_number  5
_chemical_formula_structural  As2C
_chemical_formula_sum  As2C
_cell_volume  60.175150777385745
_cell_formula_units_Z  1
loop_
  _symmetry_equiv_pos_site_id
 _symmetry_equiv_pos_as_xyz
 1  'x, y, z'
loop_
 _atom_site_type_symbol
 _atom_site_label
 _atom_site_symmetry_multiplicity
 _atom_site_fract_x
 _atom_site_fract_y
 _atom_site_fract_z
 _atom_site_fract_occupancy
 As  As1  1  0.56030  0.91306  0.49462  1
 As  As2  1  0.45315  0.35961  0.99386  1
 C  C1  1  0.90443  0.08516  -0.00570  1
