CIF file written using JARVIS-Tools package.
data_AsC3
_symmetry_space_group_name_H-M  'C2'
_cell_length_a       7.09685
_cell_length_b       3.5261
_cell_length_c       3.25358
_cell_angle_alpha    57.2215
_cell_angle_beta     115.977
_cell_angle_gamma    75.6701

_symmetry_Int_Tables_number  5
_chemical_formula_structural  AsC3
_chemical_formula_sum  AsC3
_cell_volume  47.221850579914914
_cell_formula_units_Z  1
loop_
  _symmetry_equiv_pos_site_id
 _symmetry_equiv_pos_as_xyz
 1  'x, y, z'
loop_
 _atom_site_type_symbol
 _atom_site_label
 _atom_site_symmetry_multiplicity
 _atom_site_fract_x
 _atom_site_fract_y
 _atom_site_fract_z
 _atom_site_fract_occupancy
 As  As1  1  0.47535  0.35532  0.10529  1
 C  C1  1  0.24240  0.12182  0.05673  1
 C  C2  1  0.97550  0.49385  0.60514  1
 C  C3  1  0.70866  0.84244  0.15317  1
