CIF file written using JARVIS-Tools package.
data_YbLiW2O8
_symmetry_space_group_name_H-M  'P2/c'
_cell_length_a       5.96517
_cell_length_b       4.98163
_cell_length_c       10.99
_cell_angle_alpha    64.9944
_cell_angle_beta     90
_cell_angle_gamma    90

_symmetry_Int_Tables_number  13
_chemical_formula_structural  YbLiW2O8
_chemical_formula_sum  Yb2Li2W4O6
_cell_volume  295.9702274576096
_cell_formula_units_Z  2
loop_
  _symmetry_equiv_pos_site_id
 _symmetry_equiv_pos_as_xyz
 1  'x, y, z'
loop_
 _atom_site_type_symbol
 _atom_site_label
 _atom_site_symmetry_multiplicity
 _atom_site_fract_x
 _atom_site_fract_y
 _atom_site_fract_z
 _atom_site_fract_occupancy
 Li  Li1  1  0.27454  0.50000  0.75000  1
 Li  Li2  1  0.72546  0.50000  0.25000  1
 O  O1  1  0.09034  0.16237  0.89187  1
 O  O2  1  0.62420  0.77212  0.61019  1
 O  O3  1  0.37580  0.22788  0.38981  1
 O  O4  1  0.62420  0.22788  0.88981  1
 O  O5  1  0.89201  0.65795  0.90287  1
 O  O6  1  0.35628  0.27631  0.63596  1
 O  O7  1  0.64372  0.72369  0.36404  1
 O  O8  1  0.37580  0.77212  0.11019  1
 O  O9  1  0.64372  0.27631  0.13596  1
 O  O10  1  0.09034  0.83763  0.60813  1
 O  O11  1  0.10799  0.34205  0.09713  1
 O  O12  1  0.35628  0.72369  0.86404  1
 O  O13  1  0.90966  0.83763  0.10813  1
 O  O14  1  0.89201  0.34205  0.59713  1
 O  O15  1  0.10799  0.65795  0.40287  1
 O  O16  1  0.90966  0.16237  0.39187  1
 W  W1  1  0.82084  0.24237  0.01094  1
 W  W2  1  0.17916  0.75763  0.98906  1
 W  W3  1  0.82084  0.75763  0.48906  1
 W  W4  1  0.17916  0.24237  0.51094  1
 Yb  Yb1  1  0.33265  -0.00000  0.25000  1
 Yb  Yb2  1  0.66735  0.00000  0.75000  1
