CIF file written using JARVIS-Tools package.
data_Sr2HoTaO6
_symmetry_space_group_name_H-M  'P2_1/c'
_cell_length_a       5.89742
_cell_length_b       5.81931
_cell_length_c       10.0938
_cell_angle_alpha    54.9618
_cell_angle_beta     90
_cell_angle_gamma    90

_symmetry_Int_Tables_number  14
_chemical_formula_structural  Sr2HoTaO6
_chemical_formula_sum  Sr4Ho2Ta2O2
_cell_volume  283.6282016906229
_cell_formula_units_Z  2
loop_
  _symmetry_equiv_pos_site_id
 _symmetry_equiv_pos_as_xyz
 1  'x, y, z'
loop_
 _atom_site_type_symbol
 _atom_site_label
 _atom_site_symmetry_multiplicity
 _atom_site_fract_x
 _atom_site_fract_y
 _atom_site_fract_z
 _atom_site_fract_occupancy
 Ho  Ho1  1  0.00000  0.50000  0.50000  1
 Ho  Ho2  1  0.50000  0.50000  0.00000  1
 O  O1  1  0.19776  0.76610  0.95874  1
 O  O2  1  0.02356  0.31682  0.76433  1
 O  O3  1  0.69776  0.23390  0.54126  1
 O  O4  1  0.52356  0.68318  0.73567  1
 O  O5  1  0.47644  0.31682  0.26433  1
 O  O6  1  0.97644  0.68318  0.23567  1
 O  O7  1  0.27576  0.15037  0.04465  1
 O  O8  1  0.22424  0.15037  0.54465  1
 O  O9  1  0.30224  0.76610  0.45874  1
 O  O10  1  0.72424  0.84963  0.95535  1
 O  O11  1  0.80224  0.23390  0.04126  1
 O  O12  1  0.77576  0.84963  0.45535  1
 Sr  Sr1  1  0.03677  0.24209  0.24967  1
 Sr  Sr2  1  0.96323  0.75791  0.75033  1
 Sr  Sr3  1  0.53677  0.75791  0.25033  1
 Sr  Sr4  1  0.46323  0.24209  0.74967  1
 Ta  Ta1  1  0.50000  -0.00000  0.50000  1
 Ta  Ta2  1  0.00000  0.00000  0.00000  1
