CIF file written using JARVIS-Tools package.
data_TmSiPt2
_symmetry_space_group_name_H-M  'Pnma'
_cell_length_a       5.51492
_cell_length_b       6.97035
_cell_length_c       7.24091
_cell_angle_alpha    90
_cell_angle_beta     90
_cell_angle_gamma    90

_symmetry_Int_Tables_number  62
_chemical_formula_structural  TmSiPt2
_chemical_formula_sum  Tm4Si4Pt8
_cell_volume  278.34713336269743
_cell_formula_units_Z  4
loop_
  _symmetry_equiv_pos_site_id
 _symmetry_equiv_pos_as_xyz
 1  'x, y, z'
loop_
 _atom_site_type_symbol
 _atom_site_label
 _atom_site_symmetry_multiplicity
 _atom_site_fract_x
 _atom_site_fract_y
 _atom_site_fract_z
 _atom_site_fract_occupancy
 Pt  Pt1  1  0.91108  0.54934  0.18502  1
 Pt  Pt2  1  0.58892  0.95066  0.68502  1
 Pt  Pt3  1  0.08892  0.04934  0.81498  1
 Pt  Pt4  1  0.41108  0.45066  0.31498  1
 Pt  Pt5  1  0.08892  0.45066  0.81498  1
 Pt  Pt6  1  0.41108  0.04934  0.31498  1
 Pt  Pt7  1  0.91108  0.95066  0.18502  1
 Pt  Pt8  1  0.58892  0.54934  0.68502  1
 Si  Si1  1  0.63640  0.75000  0.38097  1
 Si  Si2  1  0.86360  0.75000  0.88097  1
 Si  Si3  1  0.36360  0.25000  0.61903  1
 Si  Si4  1  0.13640  0.25000  0.11903  1
 Tm  Tm1  1  0.36287  0.75000  0.02496  1
 Tm  Tm2  1  0.13713  0.75000  0.52496  1
 Tm  Tm3  1  0.63713  0.25000  0.97504  1
 Tm  Tm4  1  0.86287  0.25000  0.47504  1
