CIF file written using JARVIS-Tools package.
data_CaNdCrO4
_symmetry_space_group_name_H-M  'Cmc2_1'
_cell_length_a       6.52185
_cell_length_b       6.52185
_cell_length_c       5.54928
_cell_angle_alpha    90
_cell_angle_beta     90
_cell_angle_gamma    131.555

_symmetry_Int_Tables_number  36
_chemical_formula_structural  CaNdCrO4
_chemical_formula_sum  Ca2Nd2Cr2O8
_cell_volume  176.62900184647822
_cell_formula_units_Z  2
loop_
  _symmetry_equiv_pos_site_id
 _symmetry_equiv_pos_as_xyz
 1  'x, y, z'
loop_
 _atom_site_type_symbol
 _atom_site_label
 _atom_site_symmetry_multiplicity
 _atom_site_fract_x
 _atom_site_fract_y
 _atom_site_fract_z
 _atom_site_fract_occupancy
 Ca  Ca1  1  0.60430  0.39570  0.48560  1
 Ca  Ca2  1  0.39570  0.60430  0.98560  1
 Cr  Cr1  1  0.25093  0.74907  0.50140  1
 Cr  Cr2  1  0.74907  0.25093  0.00140  1
 Nd  Nd1  1  0.88867  0.11133  0.51546  1
 Nd  Nd2  1  0.11133  0.88867  0.01546  1
 O  O1  1  0.48206  0.02453  0.74641  1
 O  O2  1  0.51794  0.97547  0.24641  1
 O  O3  1  0.02453  0.48206  0.24641  1
 O  O4  1  0.97547  0.51794  0.74641  1
 O  O5  1  0.41721  0.58279  0.55997  1
 O  O6  1  0.07953  0.92047  0.44474  1
 O  O7  1  0.58279  0.41721  0.05997  1
 O  O8  1  0.92047  0.07953  0.94474  1
