CIF file written using JARVIS-Tools package.
data_Ir2Pb2O7
_symmetry_space_group_name_H-M  'Fd-3m'
_cell_length_a       7.35084
_cell_length_b       7.35084
_cell_length_c       7.35084
_cell_angle_alpha    60
_cell_angle_beta     60
_cell_angle_gamma    60

_symmetry_Int_Tables_number  227
_chemical_formula_structural  Ir2Pb2O7
_chemical_formula_sum  Ir4Pb4O4
_cell_volume  280.8644244251885
_cell_formula_units_Z  2
loop_
  _symmetry_equiv_pos_site_id
 _symmetry_equiv_pos_as_xyz
 1  'x, y, z'
loop_
 _atom_site_type_symbol
 _atom_site_label
 _atom_site_symmetry_multiplicity
 _atom_site_fract_x
 _atom_site_fract_y
 _atom_site_fract_z
 _atom_site_fract_occupancy
 Ir  Ir1  1  0.12500  0.62500  0.62500  1
 Ir  Ir2  1  0.62500  0.12500  0.62500  1
 Ir  Ir3  1  0.62500  0.62500  0.12500  1
 Ir  Ir4  1  0.62500  0.62500  0.62500  1
 O  O1  1  0.70366  0.70366  0.29634  1
 O  O2  1  0.29634  0.29634  0.70366  1
 O  O3  1  0.25000  0.25000  0.25000  1
 O  O4  1  0.29634  0.70366  0.29634  1
 O  O5  1  0.29634  0.70366  0.70366  1
 O  O6  1  0.70366  0.29634  0.70366  1
 O  O7  1  0.54634  0.54634  0.95366  1
 O  O8  1  0.95366  0.95366  0.54634  1
 O  O9  1  0.95366  0.54634  0.95366  1
 O  O10  1  0.70366  0.29634  0.29634  1
 O  O11  1  0.95366  0.54634  0.54634  1
 O  O12  1  0.54634  0.95366  0.95366  1
 O  O13  1  0.54634  0.95366  0.54634  1
 O  O14  1  0.00000  0.00000  0.00000  1
 Pb  Pb1  1  0.12500  0.12500  0.12500  1
 Pb  Pb2  1  0.12500  0.12500  0.62500  1
 Pb  Pb3  1  0.12500  0.62500  0.12500  1
 Pb  Pb4  1  0.62500  0.12500  0.12500  1
