CIF file written using JARVIS-Tools package.
data_InBrO2
_symmetry_space_group_name_H-M  'C2/m'
_cell_length_a       3.46079
_cell_length_b       3.46079
_cell_length_c       6.25987
_cell_angle_alpha    99.1992
_cell_angle_beta     99.1992
_cell_angle_gamma    59.5378

_symmetry_Int_Tables_number  12
_chemical_formula_structural  InBrO2
_chemical_formula_sum  InBrO2
_cell_volume  63.52013967887051
_cell_formula_units_Z  1
loop_
  _symmetry_equiv_pos_site_id
 _symmetry_equiv_pos_as_xyz
 1  'x, y, z'
loop_
 _atom_site_type_symbol
 _atom_site_label
 _atom_site_symmetry_multiplicity
 _atom_site_fract_x
 _atom_site_fract_y
 _atom_site_fract_z
 _atom_site_fract_occupancy
 Br  Br1  1  1.00000  1.00000  0.50000  1
 In  In1  1  0.50000  0.50000  -0.00000  1
 O  O1  1  0.13628  0.13628  0.83656  1
 O  O2  1  0.86372  0.86372  0.16344  1
