CIF file written using JARVIS-Tools package.
data_CaNd3Mn4O12
_symmetry_space_group_name_H-M  'Pm'
_cell_length_a       7.69749
_cell_length_b       5.42673
_cell_length_c       5.4975
_cell_angle_alpha    90.0813
_cell_angle_beta     90
_cell_angle_gamma    90

_symmetry_Int_Tables_number  6
_chemical_formula_structural  CaNd3Mn4O12
_chemical_formula_sum  CaNd3Mn4O2
_cell_volume  229.64217864034762
_cell_formula_units_Z  1
loop_
  _symmetry_equiv_pos_site_id
 _symmetry_equiv_pos_as_xyz
 1  'x, y, z'
loop_
 _atom_site_type_symbol
 _atom_site_label
 _atom_site_symmetry_multiplicity
 _atom_site_fract_x
 _atom_site_fract_y
 _atom_site_fract_z
 _atom_site_fract_occupancy
 Ca  Ca1  1  0.50000  0.49003  0.54284  1
 Mn  Mn1  1  0.25355  0.00071  0.50075  1
 Mn  Mn2  1  0.74679  0.49986  0.99857  1
 Mn  Mn3  1  0.74645  0.00071  0.50075  1
 Mn  Mn4  1  0.25321  0.49986  0.99857  1
 Nd  Nd1  1  0.50000  0.00962  0.04386  1
 Nd  Nd2  1  0.00000  0.50950  0.45704  1
 Nd  Nd3  1  0.00000  0.99195  0.95647  1
 O  O1  1  0.50000  0.57558  0.97716  1
 O  O2  1  0.20543  0.71693  0.71561  1
 O  O3  1  0.00000  0.42761  0.01525  1
 O  O4  1  0.00000  0.07543  0.51033  1
 O  O5  1  0.50000  0.92014  0.48497  1
 O  O6  1  0.70827  0.28688  0.28722  1
 O  O7  1  0.29173  0.28688  0.28722  1
 O  O8  1  0.71446  0.20881  0.79109  1
 O  O9  1  0.79457  0.71693  0.71561  1
 O  O10  1  0.28554  0.20881  0.79109  1
 O  O11  1  0.21003  0.78689  0.21279  1
 O  O12  1  0.78997  0.78689  0.21279  1
