CIF file written using JARVIS-Tools package.
data_InBr4O
_symmetry_space_group_name_H-M  'I4/m'
_cell_length_a       6.34852
_cell_length_b       6.34852
_cell_length_c       6.34852
_cell_angle_alpha    95.7209
_cell_angle_beta     95.7209
_cell_angle_gamma    143.191

_symmetry_Int_Tables_number  87
_chemical_formula_structural  InBr4O
_chemical_formula_sum  InBr4O
_cell_volume  145.46340695654828
_cell_formula_units_Z  1
loop_
  _symmetry_equiv_pos_site_id
 _symmetry_equiv_pos_as_xyz
 1  'x, y, z'
loop_
 _atom_site_type_symbol
 _atom_site_label
 _atom_site_symmetry_multiplicity
 _atom_site_fract_x
 _atom_site_fract_y
 _atom_site_fract_z
 _atom_site_fract_occupancy
 Br  Br1  1  0.10549  0.66899  0.81000  1
 Br  Br2  1  0.85899  0.29550  0.19000  1
 Br  Br3  1  0.66899  0.85899  0.56350  1
 Br  Br4  1  0.29550  0.10549  0.43650  1
 In  In1  1  -0.01794  -0.01794  0.00000  1
 O  O1  1  0.48206  0.48206  0.00000  1
