CIF file written using JARVIS-Tools package.
data_Li2VCrO4
_symmetry_space_group_name_H-M  'C2/c'
_cell_length_a       5.88066
_cell_length_b       5.88066
_cell_length_c       5.01327
_cell_angle_alpha    73.7841
_cell_angle_beta     73.7841
_cell_angle_gamma    60.5558

_symmetry_Int_Tables_number  15
_chemical_formula_structural  Li2VCrO4
_chemical_formula_sum  Li4V2Cr2O8
_cell_volume  142.86522111102494
_cell_formula_units_Z  2
loop_
  _symmetry_equiv_pos_site_id
 _symmetry_equiv_pos_as_xyz
 1  'x, y, z'
loop_
 _atom_site_type_symbol
 _atom_site_label
 _atom_site_symmetry_multiplicity
 _atom_site_fract_x
 _atom_site_fract_y
 _atom_site_fract_z
 _atom_site_fract_occupancy
 Cr  Cr1  1  0.12091  0.87909  0.75000  1
 Cr  Cr2  1  0.87909  0.12091  0.25000  1
 Li  Li1  1  0.12012  0.37526  0.75340  1
 Li  Li2  1  0.62474  0.87988  0.74660  1
 Li  Li3  1  0.37526  0.12012  0.25340  1
 Li  Li4  1  0.87988  0.62474  0.24660  1
 O  O1  1  0.48401  0.74824  0.50959  1
 O  O2  1  0.98805  0.23778  0.50984  1
 O  O3  1  0.23778  0.98805  0.00984  1
 O  O4  1  0.51599  0.25176  0.49041  1
 O  O5  1  0.01195  0.76222  0.49016  1
 O  O6  1  0.25176  0.51599  0.99041  1
 O  O7  1  0.74824  0.48401  0.00959  1
 O  O8  1  0.76222  0.01195  0.99016  1
 V  V1  1  0.61704  0.38296  0.75000  1
 V  V2  1  0.38296  0.61704  0.25000  1
