CIF file written using JARVIS-Tools package.
data_Cd4SnN4
_symmetry_space_group_name_H-M  'P-1'
_cell_length_a       6.04978
_cell_length_b       6.06939
_cell_length_c       9.12051
_cell_angle_alpha    68.3895
_cell_angle_beta     86.4383
_cell_angle_gamma    68.4385

_symmetry_Int_Tables_number  2
_chemical_formula_structural  Cd4SnN4
_chemical_formula_sum  Cd8Sn2N8
_cell_volume  288.5235796125418
_cell_formula_units_Z  2
loop_
  _symmetry_equiv_pos_site_id
 _symmetry_equiv_pos_as_xyz
 1  'x, y, z'
loop_
 _atom_site_type_symbol
 _atom_site_label
 _atom_site_symmetry_multiplicity
 _atom_site_fract_x
 _atom_site_fract_y
 _atom_site_fract_z
 _atom_site_fract_occupancy
 Cd  Cd1  1  0.71478  0.63318  0.20769  1
 Cd  Cd2  1  0.28522  0.36682  0.79231  1
 Cd  Cd3  1  0.75135  0.23864  0.99542  1
 Cd  Cd4  1  0.24865  0.76136  0.00458  1
 Cd  Cd5  1  0.75005  0.47893  0.58894  1
 Cd  Cd6  1  0.24995  0.52107  0.41106  1
 Cd  Cd7  1  0.24808  0.92404  0.58557  1
 Cd  Cd8  1  0.75192  0.07596  0.41443  1
 N  N1  1  0.52356  0.33709  0.18816  1
 N  N2  1  0.47644  0.66291  0.81184  1
 N  N3  1  0.14631  0.16578  0.00660  1
 N  N4  1  0.85369  0.83422  0.99340  1
 N  N5  1  0.55545  0.21873  0.62953  1
 N  N6  1  0.95513  0.70471  0.62224  1
 N  N7  1  0.44455  0.78127  0.37047  1
 N  N8  1  0.04487  0.29529  0.37776  1
 Sn  Sn1  1  0.72710  0.84010  0.78714  1
 Sn  Sn2  1  0.27290  0.15990  0.21286  1
