CIF file written using JARVIS-Tools package.
data_Rb2InBr
_symmetry_space_group_name_H-M  'Immm'
_cell_length_a       10.4297
_cell_length_b       10.4297
_cell_length_c       10.4297
_cell_angle_alpha    153.404
_cell_angle_beta     37.3326
_cell_angle_gamma    154.282

_symmetry_Int_Tables_number  71
_chemical_formula_structural  Rb2InBr
_chemical_formula_sum  Rb2InBr
_cell_volume  220.08632372710267
_cell_formula_units_Z  1
loop_
  _symmetry_equiv_pos_site_id
 _symmetry_equiv_pos_as_xyz
 1  'x, y, z'
loop_
 _atom_site_type_symbol
 _atom_site_label
 _atom_site_symmetry_multiplicity
 _atom_site_fract_x
 _atom_site_fract_y
 _atom_site_fract_z
 _atom_site_fract_occupancy
 Br  Br1  1  0.00000  0.00000  0.00000  1
 In  In1  1  0.50000  0.00000  0.50000  1
 Rb  Rb1  1  0.16244  -0.00000  0.16244  1
 Rb  Rb2  1  0.83756  -0.00000  0.83756  1
