CIF file written using JARVIS-Tools package.
data_YBr4O
_symmetry_space_group_name_H-M  'I4/m'
_cell_length_a       6.41536
_cell_length_b       6.41536
_cell_length_c       6.41536
_cell_angle_alpha    96.1423
_cell_angle_beta     96.1423
_cell_angle_gamma    141.813

_symmetry_Int_Tables_number  87
_chemical_formula_structural  YBr4O
_chemical_formula_sum  YBr4O
_cell_volume  154.25370032985856
_cell_formula_units_Z  1
loop_
  _symmetry_equiv_pos_site_id
 _symmetry_equiv_pos_as_xyz
 1  'x, y, z'
loop_
 _atom_site_type_symbol
 _atom_site_label
 _atom_site_symmetry_multiplicity
 _atom_site_fract_x
 _atom_site_fract_y
 _atom_site_fract_z
 _atom_site_fract_occupancy
 Br  Br1  1  0.11320  0.66340  0.81217  1
 Br  Br2  1  0.85123  0.30103  0.18783  1
 Br  Br3  1  0.66340  0.85123  0.55020  1
 Br  Br4  1  0.30103  0.11320  0.44980  1
 O  O1  1  0.48212  0.48212  0.00000  1
 Y  Y1  1  0.98212  0.98212  0.00000  1
