CIF file written using JARVIS-Tools package.
data_CuAsO4
_symmetry_space_group_name_H-M  'I-4'
_cell_length_a       4.60396
_cell_length_b       4.60396
_cell_length_c       4.60396
_cell_angle_alpha    108.579
_cell_angle_beta     108.579
_cell_angle_gamma    111.27

_symmetry_Int_Tables_number  82
_chemical_formula_structural  CuAsO4
_chemical_formula_sum  CuAsO4
_cell_volume  75.06746575775759
_cell_formula_units_Z  1
loop_
  _symmetry_equiv_pos_site_id
 _symmetry_equiv_pos_as_xyz
 1  'x, y, z'
loop_
 _atom_site_type_symbol
 _atom_site_label
 _atom_site_symmetry_multiplicity
 _atom_site_fract_x
 _atom_site_fract_y
 _atom_site_fract_z
 _atom_site_fract_occupancy
 As  As1  1  0.00000  0.00000  0.00000  1
 Cu  Cu1  1  0.75000  0.25000  0.50000  1
 O  O1  1  -0.00836  0.02973  0.63152  1
 O  O2  1  0.39821  0.36012  0.36848  1
 O  O3  1  -0.02973  0.60179  -0.03809  1
 O  O4  1  0.63988  0.00836  0.03809  1
