CIF file written using JARVIS-Tools package.
data_Ba6Re2N6O
_symmetry_space_group_name_H-M  'R-3'
_cell_length_a       7.48562
_cell_length_b       7.48561
_cell_length_c       7.48562
_cell_angle_alpha    66.1252
_cell_angle_beta     66.1252
_cell_angle_gamma    66.1252

_symmetry_Int_Tables_number  148
_chemical_formula_structural  Ba6Re2N6O
_chemical_formula_sum  Ba6Re2N6O
_cell_volume  335.8662512362152
_cell_formula_units_Z  1
loop_
  _symmetry_equiv_pos_site_id
 _symmetry_equiv_pos_as_xyz
 1  'x, y, z'
loop_
 _atom_site_type_symbol
 _atom_site_label
 _atom_site_symmetry_multiplicity
 _atom_site_fract_x
 _atom_site_fract_y
 _atom_site_fract_z
 _atom_site_fract_occupancy
 Ba  Ba1  1  0.33531  0.18168  0.73704  1
 Ba  Ba2  1  0.18168  0.73704  0.33531  1
 Ba  Ba3  1  0.73704  0.33531  0.18168  1
 Ba  Ba4  1  0.66469  0.81832  0.26296  1
 Ba  Ba5  1  0.81832  0.26296  0.66469  1
 Ba  Ba6  1  0.26296  0.66469  0.81832  1
 N  N1  1  0.24482  0.03068  0.47894  1
 N  N2  1  0.03068  0.47894  0.24482  1
 N  N3  1  0.47894  0.24482  0.03068  1
 N  N4  1  0.75518  0.96932  0.52106  1
 N  N5  1  0.96932  0.52106  0.75518  1
 N  N6  1  0.52106  0.75518  0.96932  1
 O  O1  1  0.50000  0.50000  0.50000  1
 Re  Re1  1  0.24949  0.24949  0.24949  1
 Re  Re2  1  0.75051  0.75051  0.75051  1
