CIF file written using JARVIS-Tools package.
data_PBr3
_symmetry_space_group_name_H-M  'P-62m'
_cell_length_a       6.64731
_cell_length_b       6.64731
_cell_length_c       3.52907
_cell_angle_alpha    90
_cell_angle_beta     90
_cell_angle_gamma    120

_symmetry_Int_Tables_number  189
_chemical_formula_structural  PBr3
_chemical_formula_sum  PBr3
_cell_volume  135.04637302645204
_cell_formula_units_Z  1
loop_
  _symmetry_equiv_pos_site_id
 _symmetry_equiv_pos_as_xyz
 1  'x, y, z'
loop_
 _atom_site_type_symbol
 _atom_site_label
 _atom_site_symmetry_multiplicity
 _atom_site_fract_x
 _atom_site_fract_y
 _atom_site_fract_z
 _atom_site_fract_occupancy
 Br  Br1  1  0.35014  0.00000  0.00000  1
 Br  Br2  1  1.00000  0.35014  0.00000  1
 Br  Br3  1  0.64986  0.64986  0.00000  1
 P  P1  1  0.00000  0.00000  0.00000  1
