CIF file written using JARVIS-Tools package.
data_Na2Se
_symmetry_space_group_name_H-M  'P6/mmm'
_cell_length_a       4.98836
_cell_length_b       4.87975
_cell_length_c       4.98775
_cell_angle_alpha    90
_cell_angle_beta     119.952
_cell_angle_gamma    90

_symmetry_Int_Tables_number  191
_chemical_formula_structural  Na2Se
_chemical_formula_sum  Na2Se
_cell_volume  105.19621538689529
_cell_formula_units_Z  1
loop_
  _symmetry_equiv_pos_site_id
 _symmetry_equiv_pos_as_xyz
 1  'x, y, z'
loop_
 _atom_site_type_symbol
 _atom_site_label
 _atom_site_symmetry_multiplicity
 _atom_site_fract_x
 _atom_site_fract_y
 _atom_site_fract_z
 _atom_site_fract_occupancy
 Na  Na1  1  -0.20002  0.00000  -0.19996  1
 Na  Na2  1  0.13335  0.00000  0.46661  1
 Se  Se1  1  0.46667  0.00000  0.13335  1
