CIF file written using JARVIS-Tools package.
data_RbPbBr
_symmetry_space_group_name_H-M  'P4mm'
_cell_length_a       3.77435
_cell_length_b       3.77435
_cell_length_c       9.39603
_cell_angle_alpha    90
_cell_angle_beta     90
_cell_angle_gamma    90

_symmetry_Int_Tables_number  99
_chemical_formula_structural  RbPbBr
_chemical_formula_sum  RbPbBr
_cell_volume  133.85338430757616
_cell_formula_units_Z  1
loop_
  _symmetry_equiv_pos_site_id
 _symmetry_equiv_pos_as_xyz
 1  'x, y, z'
loop_
 _atom_site_type_symbol
 _atom_site_label
 _atom_site_symmetry_multiplicity
 _atom_site_fract_x
 _atom_site_fract_y
 _atom_site_fract_z
 _atom_site_fract_occupancy
 Br  Br1  1  0.00000  0.00000  0.29953  1
 Pb  Pb1  1  0.00000  0.00000  0.59185  1
 Rb  Rb1  1  0.00000  0.00000  -0.02840  1
