CIF file written using JARVIS-Tools package.
data_P3Br
_symmetry_space_group_name_H-M  'P1'
_cell_length_a       5.73061
_cell_length_b       6.06135
_cell_length_c       5.06752
_cell_angle_alpha    78.7475
_cell_angle_beta     112.367
_cell_angle_gamma    143.31

_symmetry_Int_Tables_number  1
_chemical_formula_structural  P3Br
_chemical_formula_sum  P3Br
_cell_volume  95.31102816063931
_cell_formula_units_Z  1
loop_
  _symmetry_equiv_pos_site_id
 _symmetry_equiv_pos_as_xyz
 1  'x, y, z'
loop_
 _atom_site_type_symbol
 _atom_site_label
 _atom_site_symmetry_multiplicity
 _atom_site_fract_x
 _atom_site_fract_y
 _atom_site_fract_z
 _atom_site_fract_occupancy
 Br  Br1  1  0.27872  0.75568  0.07144  1
 P  P1  1  0.04938  -0.04598  0.01115  1
 P  P2  1  0.25426  0.32782  0.68594  1
 P  P3  1  0.30947  0.08945  0.49771  1
