CIF file written using JARVIS-Tools package.
data_Li4Mn3CoO8
_symmetry_space_group_name_H-M  'P-1'
_cell_length_a       2.9471
_cell_length_b       4.96503
_cell_length_c       9.77217
_cell_angle_alpha    78.2552
_cell_angle_beta     86.5831
_cell_angle_gamma    87.3223

_symmetry_Int_Tables_number  2
_chemical_formula_structural  Li4Mn3CoO8
_chemical_formula_sum  Li4Mn3CoO8
_cell_volume  139.660444334326
_cell_formula_units_Z  1
loop_
  _symmetry_equiv_pos_site_id
 _symmetry_equiv_pos_as_xyz
 1  'x, y, z'
loop_
 _atom_site_type_symbol
 _atom_site_label
 _atom_site_symmetry_multiplicity
 _atom_site_fract_x
 _atom_site_fract_y
 _atom_site_fract_z
 _atom_site_fract_occupancy
 Co  Co1  1  0.00000  0.00000  0.00000  1
 Li  Li1  1  0.01607  0.75642  0.75111  1
 Li  Li2  1  0.48576  0.75204  0.24697  1
 Li  Li3  1  0.51424  0.24796  0.75303  1
 Li  Li4  1  0.98393  0.24358  0.24889  1
 Mn  Mn1  1  0.50000  0.00000  0.50000  1
 Mn  Mn2  1  0.50000  0.50000  -0.00000  1
 Mn  Mn3  1  0.00000  0.50000  0.50000  1
 O  O1  1  0.51915  0.86991  0.89335  1
 O  O2  1  0.94809  0.85789  0.37720  1
 O  O3  1  0.02276  0.37616  0.89255  1
 O  O4  1  0.44768  0.35766  0.37753  1
 O  O5  1  0.55232  0.64234  0.62247  1
 O  O6  1  -0.02276  0.62384  0.10745  1
 O  O7  1  0.05191  0.14211  0.62280  1
 O  O8  1  0.48085  0.13009  0.10665  1
