CIF file written using JARVIS-Tools package.
data_PBr3
_symmetry_space_group_name_H-M  'P1'
_cell_length_a       6.23328
_cell_length_b       6.23963
_cell_length_c       4.0419
_cell_angle_alpha    103.18
_cell_angle_beta     79.7218
_cell_angle_gamma    63.5679

_symmetry_Int_Tables_number  1
_chemical_formula_structural  PBr3
_chemical_formula_sum  PBr3
_cell_volume  129.80440357128924
_cell_formula_units_Z  1
loop_
  _symmetry_equiv_pos_site_id
 _symmetry_equiv_pos_as_xyz
 1  'x, y, z'
loop_
 _atom_site_type_symbol
 _atom_site_label
 _atom_site_symmetry_multiplicity
 _atom_site_fract_x
 _atom_site_fract_y
 _atom_site_fract_z
 _atom_site_fract_occupancy
 Br  Br1  1  0.06034  0.98262  -0.00610  1
 Br  Br2  1  0.72328  0.64658  0.68270  1
 Br  Br3  1  0.38628  0.31761  0.01449  1
 P  P1  1  0.39292  -0.01851  0.15342  1
