CIF file written using JARVIS-Tools package.
data_Li2FeCoO4
_symmetry_space_group_name_H-M  'Imma'
_cell_length_a       5.69861
_cell_length_b       5.69861
_cell_length_c       5.72271
_cell_angle_alpha    59.8512
_cell_angle_beta     59.8512
_cell_angle_gamma    90.688

_symmetry_Int_Tables_number  74
_chemical_formula_structural  Li2FeCoO4
_chemical_formula_sum  Li4Fe2Co2O8
_cell_volume  129.99446050707286
_cell_formula_units_Z  2
loop_
  _symmetry_equiv_pos_site_id
 _symmetry_equiv_pos_as_xyz
 1  'x, y, z'
loop_
 _atom_site_type_symbol
 _atom_site_label
 _atom_site_symmetry_multiplicity
 _atom_site_fract_x
 _atom_site_fract_y
 _atom_site_fract_z
 _atom_site_fract_occupancy
 Co  Co1  1  0.00000  0.00000  0.50000  1
 Co  Co2  1  0.00000  0.00000  0.00000  1
 Fe  Fe1  1  0.50000  0.00000  0.50000  1
 Fe  Fe2  1  -0.00000  0.50000  0.00000  1
 Li  Li1  1  0.50000  0.50000  0.50000  1
 Li  Li2  1  0.50000  0.00000  0.00000  1
 Li  Li3  1  -0.00000  0.50000  0.50000  1
 Li  Li4  1  0.50000  0.50000  0.00000  1
 O  O1  1  0.77782  0.75605  0.98312  1
 O  O2  1  0.76118  0.23870  0.48349  1
 O  O3  1  0.23870  0.76118  -0.01651  1
 O  O4  1  0.75605  0.77782  0.48312  1
 O  O5  1  0.24395  0.22218  0.51688  1
 O  O6  1  0.76130  0.23882  0.01651  1
 O  O7  1  0.23882  0.76130  0.51651  1
 O  O8  1  0.22218  0.24395  0.01688  1
