CIF file written using JARVIS-Tools package.
data_Na2MnPHO3F4
_symmetry_space_group_name_H-M  'P2_1/m'
_cell_length_a       5.68856
_cell_length_b       6.98468
_cell_length_c       7.73907
_cell_angle_alpha    90.0001
_cell_angle_beta     90.0012
_cell_angle_gamma    108.149

_symmetry_Int_Tables_number  11
_chemical_formula_structural  Na2MnPHO3F4
_chemical_formula_sum  Na4Mn2P2H2O6F8
_cell_volume  292.19730294957645
_cell_formula_units_Z  2
loop_
  _symmetry_equiv_pos_site_id
 _symmetry_equiv_pos_as_xyz
 1  'x, y, z'
loop_
 _atom_site_type_symbol
 _atom_site_label
 _atom_site_symmetry_multiplicity
 _atom_site_fract_x
 _atom_site_fract_y
 _atom_site_fract_z
 _atom_site_fract_occupancy
 F  F1  1  0.62740  0.33720  0.99283  1
 F  F2  1  0.62739  0.33720  0.50713  1
 F  F3  1  0.76500  0.96866  0.25000  1
 F  F4  1  0.23500  0.03134  0.74999  1
 F  F5  1  0.94439  0.60860  0.25000  1
 F  F6  1  0.05561  0.39140  0.75000  1
 F  F7  1  0.37260  0.66280  0.49286  1
 F  F8  1  0.37261  0.66281  0.00716  1
 H  H1  1  0.90199  0.18543  0.75000  1
 H  H2  1  0.09801  0.81457  0.25000  1
 Mn  Mn1  1  0.00000  0.50000  0.00000  1
 Mn  Mn2  1  -0.00000  0.50000  0.50000  1
 Na  Na1  1  0.50001  -0.00000  0.50000  1
 Na  Na2  1  0.51952  0.52822  0.25001  1
 Na  Na3  1  0.48048  0.47178  0.74999  1
 Na  Na4  1  0.49999  0.00000  -0.00000  1
 O  O1  1  0.20435  0.96515  0.25001  1
 O  O2  1  0.79565  0.03485  0.75000  1
 O  O3  1  0.91546  0.76609  0.58418  1
 O  O4  1  0.91549  0.76611  0.91582  1
 O  O5  1  0.08453  0.23391  0.08419  1
 O  O6  1  0.08451  0.23389  0.41583  1
 P  P1  1  0.04982  0.11836  0.25001  1
 P  P2  1  0.95018  0.88164  0.75000  1
