CIF file written using JARVIS-Tools package.
data_PbBr
_symmetry_space_group_name_H-M  'Amm2'
_cell_length_a       6.23272
_cell_length_b       3.86006
_cell_length_c       7.99338
_cell_angle_alpha    85.8586
_cell_angle_beta     64.4645
_cell_angle_gamma    127.611

_symmetry_Int_Tables_number  38
_chemical_formula_structural  PbBr
_chemical_formula_sum  Pb2Br2
_cell_volume  121.40053715093956
_cell_formula_units_Z  2
loop_
  _symmetry_equiv_pos_site_id
 _symmetry_equiv_pos_as_xyz
 1  'x, y, z'
loop_
 _atom_site_type_symbol
 _atom_site_label
 _atom_site_symmetry_multiplicity
 _atom_site_fract_x
 _atom_site_fract_y
 _atom_site_fract_z
 _atom_site_fract_occupancy
 Br  Br1  1  0.03950  0.14403  0.25134  1
 Br  Br2  1  0.53949  0.14415  0.75131  1
 Pb  Pb1  1  0.17410  0.37617  0.61669  1
 Pb  Pb2  1  0.67423  0.37648  0.11655  1
