CIF file written using JARVIS-Tools package.
data_PbSeBr
_symmetry_space_group_name_H-M  'P4mm'
_cell_length_a       3.06298
_cell_length_b       3.06298
_cell_length_c       9.70774
_cell_angle_alpha    90
_cell_angle_beta     90
_cell_angle_gamma    90

_symmetry_Int_Tables_number  99
_chemical_formula_structural  PbSeBr
_chemical_formula_sum  PbSeBr
_cell_volume  91.0766628110015
_cell_formula_units_Z  1
loop_
  _symmetry_equiv_pos_site_id
 _symmetry_equiv_pos_as_xyz
 1  'x, y, z'
loop_
 _atom_site_type_symbol
 _atom_site_label
 _atom_site_symmetry_multiplicity
 _atom_site_fract_x
 _atom_site_fract_y
 _atom_site_fract_z
 _atom_site_fract_occupancy
 Br  Br1  1  0.00000  0.00000  0.02859  1
 Pb  Pb1  1  0.00000  0.00000  0.34704  1
 Se  Se1  1  0.00000  0.00000  0.65267  1
