CIF file written using JARVIS-Tools package.
data_ThCrS3
_symmetry_space_group_name_H-M  'Pnma'
_cell_length_a       6.22336
_cell_length_b       7.35381
_cell_length_c       8.96942
_cell_angle_alpha    90
_cell_angle_beta     90
_cell_angle_gamma    90

_symmetry_Int_Tables_number  62
_chemical_formula_structural  ThCrS3
_chemical_formula_sum  Th4Cr4S2
_cell_volume  410.48893601267645
_cell_formula_units_Z  4
loop_
  _symmetry_equiv_pos_site_id
 _symmetry_equiv_pos_as_xyz
 1  'x, y, z'
loop_
 _atom_site_type_symbol
 _atom_site_label
 _atom_site_symmetry_multiplicity
 _atom_site_fract_x
 _atom_site_fract_y
 _atom_site_fract_z
 _atom_site_fract_occupancy
 Cr  Cr1  1  0.50000  0.50000  0.00000  1
 Cr  Cr2  1  0.00000  0.00000  0.50000  1
 Cr  Cr3  1  0.50000  0.50000  0.50000  1
 Cr  Cr4  1  0.00000  0.00000  0.00000  1
 S  S1  1  0.32858  0.17550  0.44511  1
 S  S2  1  0.63120  0.53488  0.25000  1
 S  S3  1  0.67142  0.82450  0.94511  1
 S  S4  1  0.36880  0.46512  0.75000  1
 S  S5  1  0.13120  0.96512  0.75000  1
 S  S6  1  0.86880  0.03488  0.25000  1
 S  S7  1  0.82858  0.32450  0.94511  1
 S  S8  1  0.82858  0.32450  0.55489  1
 S  S9  1  0.17142  0.67550  0.44511  1
 S  S10  1  0.67142  0.82450  0.55489  1
 S  S11  1  0.17142  0.67550  0.05489  1
 S  S12  1  0.32858  0.17550  0.05489  1
 Th  Th1  1  0.95056  0.61525  0.75000  1
 Th  Th2  1  0.54944  0.11525  0.75000  1
 Th  Th3  1  0.04944  0.38475  0.25000  1
 Th  Th4  1  0.45056  0.88475  0.25000  1
