CIF file written using JARVIS-Tools package.
data_PbBr
_symmetry_space_group_name_H-M  'P2/m'
_cell_length_a       3.49852
_cell_length_b       3.96792
_cell_length_c       4.8113
_cell_angle_alpha    89.9932
_cell_angle_beta     90.0281
_cell_angle_gamma    94.4765

_symmetry_Int_Tables_number  10
_chemical_formula_structural  PbBr
_chemical_formula_sum  PbBr
_cell_volume  66.585934393421
_cell_formula_units_Z  1
loop_
  _symmetry_equiv_pos_site_id
 _symmetry_equiv_pos_as_xyz
 1  'x, y, z'
loop_
 _atom_site_type_symbol
 _atom_site_label
 _atom_site_symmetry_multiplicity
 _atom_site_fract_x
 _atom_site_fract_y
 _atom_site_fract_z
 _atom_site_fract_occupancy
 Br  Br1  1  0.96834  0.98164  0.99163  1
 Pb  Pb1  1  0.96695  0.48174  0.49158  1
