CIF file written using JARVIS-Tools package.
data_LiSbAu
_symmetry_space_group_name_H-M  'P-6m2'
_cell_length_a       4.81175
_cell_length_b       4.81129
_cell_length_c       3.34441
_cell_angle_alpha    90
_cell_angle_beta     90
_cell_angle_gamma    60.013

_symmetry_Int_Tables_number  187
_chemical_formula_structural  LiSbAu
_chemical_formula_sum  LiSbAu
_cell_volume  67.06123204512667
_cell_formula_units_Z  1
loop_
  _symmetry_equiv_pos_site_id
 _symmetry_equiv_pos_as_xyz
 1  'x, y, z'
loop_
 _atom_site_type_symbol
 _atom_site_label
 _atom_site_symmetry_multiplicity
 _atom_site_fract_x
 _atom_site_fract_y
 _atom_site_fract_z
 _atom_site_fract_occupancy
 Au  Au1  1  0.09072  -0.22898  0.00000  1
 Li  Li1  1  0.42397  0.10434  0.00000  1
 Sb  Sb1  1  -0.24266  0.43767  0.00000  1
