CIF file written using JARVIS-Tools package.
data_BaLu2Se4
_symmetry_space_group_name_H-M  'Pnma'
_cell_length_a       4.12576
_cell_length_b       12.6939
_cell_length_c       14.9395
_cell_angle_alpha    90
_cell_angle_beta     90
_cell_angle_gamma    90

_symmetry_Int_Tables_number  62
_chemical_formula_structural  BaLu2Se4
_chemical_formula_sum  Ba4Lu8Se6
_cell_volume  782.4115545011091
_cell_formula_units_Z  4
loop_
  _symmetry_equiv_pos_site_id
 _symmetry_equiv_pos_as_xyz
 1  'x, y, z'
loop_
 _atom_site_type_symbol
 _atom_site_label
 _atom_site_symmetry_multiplicity
 _atom_site_fract_x
 _atom_site_fract_y
 _atom_site_fract_z
 _atom_site_fract_occupancy
 Ba  Ba1  1  0.25000  0.76038  0.33383  1
 Ba  Ba2  1  0.25000  0.26038  0.16617  1
 Ba  Ba3  1  0.75000  0.23962  0.66617  1
 Ba  Ba4  1  0.75000  0.73962  0.83383  1
 Lu  Lu1  1  0.75000  0.06182  0.89128  1
 Lu  Lu2  1  0.25000  0.43818  0.39128  1
 Lu  Lu3  1  0.75000  0.56182  0.60872  1
 Lu  Lu4  1  0.25000  0.93818  0.10872  1
 Lu  Lu5  1  0.25000  0.42046  0.90095  1
 Lu  Lu6  1  0.75000  0.57954  0.09905  1
 Lu  Lu7  1  0.75000  0.07954  0.40095  1
 Lu  Lu8  1  0.25000  0.92046  0.59905  1
 Se  Se1  1  0.25000  0.62371  0.97510  1
 Se  Se2  1  0.25000  0.20546  0.84303  1
 Se  Se3  1  0.75000  0.58551  0.42426  1
 Se  Se4  1  0.75000  0.79454  0.15697  1
 Se  Se5  1  0.75000  0.29454  0.34303  1
 Se  Se6  1  0.25000  0.12371  0.52490  1
 Se  Se7  1  0.25000  0.70546  0.65697  1
 Se  Se8  1  0.25000  0.91449  0.92426  1
 Se  Se9  1  0.25000  0.02553  0.28342  1
 Se  Se10  1  0.75000  0.47447  0.78342  1
 Se  Se11  1  0.75000  0.97447  0.71658  1
 Se  Se12  1  0.25000  0.41449  0.57574  1
 Se  Se13  1  0.75000  0.87629  0.47510  1
 Se  Se14  1  0.25000  0.52553  0.21658  1
 Se  Se15  1  0.75000  0.37629  0.02490  1
 Se  Se16  1  0.75000  0.08551  0.07574  1
