CIF file written using JARVIS-Tools package.
data_Pb2Br
_symmetry_space_group_name_H-M  'Pm'
_cell_length_a       5.98913
_cell_length_b       3.42056
_cell_length_c       6.32137
_cell_angle_alpha    90
_cell_angle_beta     58.5014
_cell_angle_gamma    90

_symmetry_Int_Tables_number  6
_chemical_formula_structural  Pb2Br
_chemical_formula_sum  Pb2Br
_cell_volume  110.41928397034323
_cell_formula_units_Z  1
loop_
  _symmetry_equiv_pos_site_id
 _symmetry_equiv_pos_as_xyz
 1  'x, y, z'
loop_
 _atom_site_type_symbol
 _atom_site_label
 _atom_site_symmetry_multiplicity
 _atom_site_fract_x
 _atom_site_fract_y
 _atom_site_fract_z
 _atom_site_fract_occupancy
 Br  Br1  1  0.46686  0.00000  -0.11356  1
 Pb  Pb1  1  -0.09828  0.00000  0.03885  1
 Pb  Pb2  1  0.03141  0.00000  0.47471  1
