CIF file written using JARVIS-Tools package.
data_AuC3
_symmetry_space_group_name_H-M  'P1'
_cell_length_a       6.02784
_cell_length_b       3.39043
_cell_length_c       4.176
_cell_angle_alpha    58.2578
_cell_angle_beta     91.2841
_cell_angle_gamma    122.775

_symmetry_Int_Tables_number  1
_chemical_formula_structural  AuC3
_chemical_formula_sum  AuC3
_cell_volume  56.767117640823884
_cell_formula_units_Z  1
loop_
  _symmetry_equiv_pos_site_id
 _symmetry_equiv_pos_as_xyz
 1  'x, y, z'
loop_
 _atom_site_type_symbol
 _atom_site_label
 _atom_site_symmetry_multiplicity
 _atom_site_fract_x
 _atom_site_fract_y
 _atom_site_fract_z
 _atom_site_fract_occupancy
 Au  Au1  1  0.43786  0.43190  0.33853  1
 C  C1  1  0.87289  0.08996  0.11768  1
 C  C2  1  -0.00705  0.59398  0.73272  1
 C  C3  1  -0.00398  0.94017  0.38946  1
