CIF file written using JARVIS-Tools package.
data_Na5Cu3P4O16
_symmetry_space_group_name_H-M  'P-1'
_cell_length_a       5.03601
_cell_length_b       8.51134
_cell_length_c       9.14781
_cell_angle_alpha    116.6
_cell_angle_beta     89.866
_cell_angle_gamma    105.98

_symmetry_Int_Tables_number  2
_chemical_formula_structural  Na5Cu3P4O16
_chemical_formula_sum  Na5Cu3P4O6
_cell_volume  333.70146613024554
_cell_formula_units_Z  1
loop_
  _symmetry_equiv_pos_site_id
 _symmetry_equiv_pos_as_xyz
 1  'x, y, z'
loop_
 _atom_site_type_symbol
 _atom_site_label
 _atom_site_symmetry_multiplicity
 _atom_site_fract_x
 _atom_site_fract_y
 _atom_site_fract_z
 _atom_site_fract_occupancy
 Cu  Cu1  1  0.00000  0.00000  0.00000  1
 Cu  Cu2  1  0.35596  0.75510  0.70680  1
 Cu  Cu3  1  0.64404  0.24490  0.29320  1
 Na  Na1  1  0.50000  0.00000  0.50000  1
 Na  Na2  1  0.79210  0.53504  0.75844  1
 Na  Na3  1  0.20790  0.46496  0.24156  1
 Na  Na4  1  0.16314  0.35162  0.86149  1
 Na  Na5  1  0.83686  0.64838  0.13851  1
 O  O1  1  0.24792  0.82997  0.93652  1
 O  O2  1  0.71431  0.79776  0.00145  1
 O  O3  1  0.28569  0.20224  -0.00145  1
 O  O4  1  0.75208  0.17003  0.06348  1
 O  O5  1  0.53007  0.01335  0.76348  1
 O  O6  1  0.93745  0.82050  0.41020  1
 O  O7  1  0.29384  0.64100  0.08581  1
 O  O8  1  0.46993  0.98665  0.23652  1
 O  O9  1  0.47143  0.69838  0.49268  1
 O  O10  1  0.91300  0.72250  0.64077  1
 O  O11  1  0.75349  0.49383  0.32363  1
 O  O12  1  0.24651  0.50617  0.67637  1
 O  O13  1  0.70616  0.35900  0.91419  1
 O  O14  1  0.08700  0.27750  0.35923  1
 O  O15  1  0.52857  0.30162  0.50732  1
 O  O16  1  0.06255  0.17950  0.58980  1
 P  P1  1  0.56794  0.18496  0.93150  1
 P  P2  1  0.43206  0.81504  0.06850  1
 P  P3  1  0.78204  0.69092  0.47651  1
 P  P4  1  0.21796  0.30908  0.52349  1
