CIF file written using JARVIS-Tools package.
data_Au2S
_symmetry_space_group_name_H-M  'Pmmm'
_cell_length_a       2.75333
_cell_length_b       2.76385
_cell_length_c       7.71435
_cell_angle_alpha    90
_cell_angle_beta     90
_cell_angle_gamma    90

_symmetry_Int_Tables_number  47
_chemical_formula_structural  Au2S
_chemical_formula_sum  Au2S
_cell_volume  58.70470877415029
_cell_formula_units_Z  1
loop_
  _symmetry_equiv_pos_site_id
 _symmetry_equiv_pos_as_xyz
 1  'x, y, z'
loop_
 _atom_site_type_symbol
 _atom_site_label
 _atom_site_symmetry_multiplicity
 _atom_site_fract_x
 _atom_site_fract_y
 _atom_site_fract_z
 _atom_site_fract_occupancy
 Au  Au1  1  -0.20002  0.00000  0.67253  1
 Au  Au2  1  -0.20002  0.00000  0.32747  1
 S  S1  1  0.80005  0.00000  0.00000  1
