CIF file written using JARVIS-Tools package.
data_Bi3As2O10
_symmetry_space_group_name_H-M  'P-1'
_cell_length_a       6.96364
_cell_length_b       7.19164
_cell_length_c       9.55848
_cell_angle_alpha    111.677
_cell_angle_beta     106.523
_cell_angle_gamma    91.5324

_symmetry_Int_Tables_number  2
_chemical_formula_structural  Bi3As2O10
_chemical_formula_sum  Bi6As4O20
_cell_volume  421.7752943593239
_cell_formula_units_Z  2
loop_
  _symmetry_equiv_pos_site_id
 _symmetry_equiv_pos_as_xyz
 1  'x, y, z'
loop_
 _atom_site_type_symbol
 _atom_site_label
 _atom_site_symmetry_multiplicity
 _atom_site_fract_x
 _atom_site_fract_y
 _atom_site_fract_z
 _atom_site_fract_occupancy
 As  As1  1  0.76428  0.02776  0.70813  1
 As  As2  1  0.23572  0.97224  0.29187  1
 As  As3  1  0.30958  0.36823  0.09790  1
 As  As4  1  0.69042  0.63177  0.90210  1
 Bi  Bi1  1  0.79743  0.18280  0.09985  1
 Bi  Bi2  1  0.23481  0.60561  0.48766  1
 Bi  Bi3  1  0.73678  0.78129  0.31316  1
 Bi  Bi4  1  0.26322  0.21871  0.68684  1
 Bi  Bi5  1  0.76519  0.39439  0.51234  1
 Bi  Bi6  1  0.20257  0.81720  0.90015  1
 O  O1  1  0.64582  0.79771  0.55740  1
 O  O2  1  0.09851  0.46029  0.62171  1
 O  O3  1  0.90149  0.53971  0.37829  1
 O  O4  1  0.20665  0.87510  0.68719  1
 O  O5  1  0.79335  0.12490  0.31281  1
 O  O6  1  0.88442  0.60278  0.82223  1
 O  O7  1  0.95057  0.02918  0.87253  1
 O  O8  1  0.35418  0.20229  0.44260  1
 O  O9  1  0.04943  0.97082  0.12747  1
 O  O10  1  0.73623  0.56757  0.06520  1
 O  O11  1  0.60255  0.16655  0.79589  1
 O  O12  1  0.48325  0.49839  0.73804  1
 O  O13  1  0.51675  0.50161  0.26196  1
 O  O14  1  0.12398  0.85819  0.38634  1
 O  O15  1  0.26377  0.43243  0.93480  1
 O  O16  1  0.61072  0.86558  0.95713  1
 O  O17  1  0.38928  0.13442  0.04287  1
 O  O18  1  0.39745  0.83345  0.20411  1
 O  O19  1  0.87602  0.14181  0.61366  1
 O  O20  1  0.11558  0.39722  0.17777  1
