CIF file written using JARVIS-Tools package.
data_MoAsO4
_symmetry_space_group_name_H-M  'I-4'
_cell_length_a       4.89449
_cell_length_b       4.89449
_cell_length_c       4.89449
_cell_angle_alpha    109.646
_cell_angle_beta     109.646
_cell_angle_gamma    109.122

_symmetry_Int_Tables_number  82
_chemical_formula_structural  MoAsO4
_chemical_formula_sum  MoAsO4
_cell_volume  90.25863354232047
_cell_formula_units_Z  1
loop_
  _symmetry_equiv_pos_site_id
 _symmetry_equiv_pos_as_xyz
 1  'x, y, z'
loop_
 _atom_site_type_symbol
 _atom_site_label
 _atom_site_symmetry_multiplicity
 _atom_site_fract_x
 _atom_site_fract_y
 _atom_site_fract_z
 _atom_site_fract_occupancy
 As  As1  1  0.00000  0.00000  0.00000  1
 Mo  Mo1  1  0.25000  0.75000  0.50000  1
 O  O1  1  0.24892  0.38220  0.49607  1
 O  O2  1  0.61781  0.11387  -0.13327  1
 O  O3  1  0.88613  0.75285  0.50393  1
 O  O4  1  0.24715  0.75108  0.13328  1
