CIF file written using JARVIS-Tools package.
data_BaPdSe2O6
_symmetry_space_group_name_H-M  'C2/c'
_cell_length_a       4.88051
_cell_length_b       4.88051
_cell_length_c       16.0442
_cell_angle_alpha    89.4033
_cell_angle_beta     89.4033
_cell_angle_gamma    64.9273

_symmetry_Int_Tables_number  15
_chemical_formula_structural  BaPdSe2O6
_chemical_formula_sum  Ba2Pd2Se4O2
_cell_volume  346.12614433920146
_cell_formula_units_Z  2
loop_
  _symmetry_equiv_pos_site_id
 _symmetry_equiv_pos_as_xyz
 1  'x, y, z'
loop_
 _atom_site_type_symbol
 _atom_site_label
 _atom_site_symmetry_multiplicity
 _atom_site_fract_x
 _atom_site_fract_y
 _atom_site_fract_z
 _atom_site_fract_occupancy
 Ba  Ba1  1  0.47071  0.52929  0.75000  1
 Ba  Ba2  1  0.52929  0.47071  0.25000  1
 O  O1  1  0.87798  0.75033  0.69248  1
 O  O2  1  0.33359  0.75741  0.39752  1
 O  O3  1  0.12202  0.24967  0.30752  1
 O  O4  1  0.75033  0.87798  0.19248  1
 O  O5  1  0.24967  0.12202  0.80752  1
 O  O6  1  0.16141  0.75737  0.92069  1
 O  O7  1  0.75737  0.16141  0.42069  1
 O  O8  1  0.83859  0.24263  0.07931  1
 O  O9  1  0.66641  0.24259  0.60248  1
 O  O10  1  0.75741  0.33359  0.89752  1
 O  O11  1  0.24263  0.83859  0.57931  1
 O  O12  1  0.24259  0.66641  0.10248  1
 Pd  Pd1  1  0.50000  0.50000  -0.00000  1
 Pd  Pd2  1  0.50000  0.50000  0.50000  1
 Se  Se1  1  0.84911  0.87393  0.09013  1
 Se  Se2  1  0.12607  0.15089  0.40987  1
 Se  Se3  1  0.15089  0.12607  0.90987  1
 Se  Se4  1  0.87393  0.84911  0.59013  1
