CIF file written using JARVIS-Tools package.
data_AsP2
_symmetry_space_group_name_H-M  'Pm'
_cell_length_a       5.43794
_cell_length_b       2.75418
_cell_length_c       5.42787
_cell_angle_alpha    90
_cell_angle_beta     118.676
_cell_angle_gamma    90

_symmetry_Int_Tables_number  6
_chemical_formula_structural  AsP2
_chemical_formula_sum  AsP2
_cell_volume  71.3228872316957
_cell_formula_units_Z  1
loop_
  _symmetry_equiv_pos_site_id
 _symmetry_equiv_pos_as_xyz
 1  'x, y, z'
loop_
 _atom_site_type_symbol
 _atom_site_label
 _atom_site_symmetry_multiplicity
 _atom_site_fract_x
 _atom_site_fract_y
 _atom_site_fract_z
 _atom_site_fract_occupancy
 As  As1  1  0.79921  0.00000  0.05326  1
 P  P1  1  -0.43081  0.00000  -0.43806  1
 P  P2  1  0.03160  0.00000  0.78480  1
