CIF file written using JARVIS-Tools package.
data_Te6RhBr3
_symmetry_space_group_name_H-M  'R-3c'
_cell_length_a       9.19206
_cell_length_b       9.19206
_cell_length_c       9.19206
_cell_angle_alpha    107.758
_cell_angle_beta     107.758
_cell_angle_gamma    107.758

_symmetry_Int_Tables_number  167
_chemical_formula_structural  Te6RhBr3
_chemical_formula_sum  Te2Rh2Br6
_cell_volume  632.9794030404239
_cell_formula_units_Z  2
loop_
  _symmetry_equiv_pos_site_id
 _symmetry_equiv_pos_as_xyz
 1  'x, y, z'
loop_
 _atom_site_type_symbol
 _atom_site_label
 _atom_site_symmetry_multiplicity
 _atom_site_fract_x
 _atom_site_fract_y
 _atom_site_fract_z
 _atom_site_fract_occupancy
 Br  Br1  1  0.02162  0.47838  0.75000  1
 Br  Br2  1  0.52162  0.25000  0.97838  1
 Br  Br3  1  0.25000  0.97838  0.52162  1
 Br  Br4  1  0.97838  0.52162  0.25000  1
 Br  Br5  1  0.47838  0.75000  0.02162  1
 Br  Br6  1  0.75000  0.02162  0.47838  1
 Rh  Rh1  1  0.75000  0.75000  0.75000  1
 Rh  Rh2  1  0.25000  0.25000  0.25000  1
 Te  Te1  1  0.66979  0.42252  0.69280  1
 Te  Te2  1  0.19280  0.92252  0.16979  1
 Te  Te3  1  0.92252  0.16979  0.19280  1
 Te  Te4  1  0.42252  0.69280  0.66979  1
 Te  Te5  1  0.30720  0.33021  0.57748  1
 Te  Te6  1  0.07748  0.83021  0.80720  1
 Te  Te7  1  0.80720  0.07748  0.83021  1
 Te  Te8  1  0.83021  0.80720  0.07748  1
 Te  Te9  1  0.57748  0.30720  0.33021  1
 Te  Te10  1  0.33021  0.57748  0.30720  1
 Te  Te11  1  0.69280  0.66979  0.42252  1
 Te  Te12  1  0.16979  0.19280  0.92252  1
