CIF file written using JARVIS-Tools package.
data_RbCuTeS3
_symmetry_space_group_name_H-M  'P2_1/c'
_cell_length_a       10.5701
_cell_length_b       7.38627
_cell_length_c       8.08321
_cell_angle_alpha    74.0857
_cell_angle_beta     90
_cell_angle_gamma    90

_symmetry_Int_Tables_number  14
_chemical_formula_structural  RbCuTeS3
_chemical_formula_sum  Rb4Cu4Te4S2
_cell_volume  606.8993363283271
_cell_formula_units_Z  4
loop_
  _symmetry_equiv_pos_site_id
 _symmetry_equiv_pos_as_xyz
 1  'x, y, z'
loop_
 _atom_site_type_symbol
 _atom_site_label
 _atom_site_symmetry_multiplicity
 _atom_site_fract_x
 _atom_site_fract_y
 _atom_site_fract_z
 _atom_site_fract_occupancy
 Cu  Cu1  1  0.24951  0.91466  0.52034  1
 Cu  Cu2  1  0.75049  0.08534  0.47966  1
 Cu  Cu3  1  0.74951  0.08534  0.97966  1
 Cu  Cu4  1  0.25049  0.91466  0.02034  1
 Rb  Rb1  1  0.23985  0.47446  0.88338  1
 Rb  Rb2  1  0.76015  0.52554  0.11662  1
 Rb  Rb3  1  0.73985  0.52554  0.61662  1
 Rb  Rb4  1  0.26015  0.47446  0.38338  1
 S  S1  1  0.43812  0.73674  0.58520  1
 S  S2  1  0.77008  0.89298  0.27618  1
 S  S3  1  0.22992  0.10702  0.72382  1
 S  S4  1  0.27008  0.10702  0.22382  1
 S  S5  1  0.72992  0.89298  0.77618  1
 S  S6  1  0.43980  0.73854  0.04860  1
 S  S7  1  0.56020  0.26146  0.95140  1
 S  S8  1  0.06188  0.73674  0.08520  1
 S  S9  1  0.06020  0.73854  0.54860  1
 S  S10  1  0.93812  0.26326  0.91480  1
 S  S11  1  0.56188  0.26326  0.41480  1
 S  S12  1  0.93980  0.26146  0.45140  1
 Te  Te1  1  0.49917  0.93607  0.76706  1
 Te  Te2  1  0.00083  0.93607  0.26706  1
 Te  Te3  1  0.99917  0.06393  0.73294  1
 Te  Te4  1  0.50083  0.06393  0.23294  1
