CIF file written using JARVIS-Tools package.
data_PrIn2Cu9
_symmetry_space_group_name_H-M  'P4/mbm'
_cell_length_a       8.50215
_cell_length_b       8.50215
_cell_length_c       5.01839
_cell_angle_alpha    90
_cell_angle_beta     90
_cell_angle_gamma    90

_symmetry_Int_Tables_number  127
_chemical_formula_structural  PrIn2Cu9
_chemical_formula_sum  Pr2In4Cu8
_cell_volume  362.7616785220153
_cell_formula_units_Z  2
loop_
  _symmetry_equiv_pos_site_id
 _symmetry_equiv_pos_as_xyz
 1  'x, y, z'
loop_
 _atom_site_type_symbol
 _atom_site_label
 _atom_site_symmetry_multiplicity
 _atom_site_fract_x
 _atom_site_fract_y
 _atom_site_fract_z
 _atom_site_fract_occupancy
 Cu  Cu1  1  0.67597  0.17597  0.24734  1
 Cu  Cu2  1  0.50000  0.00000  0.50000  1
 Cu  Cu3  1  0.00000  0.50000  0.50000  1
 Cu  Cu4  1  0.20544  0.06457  0.50000  1
 Cu  Cu5  1  0.79456  0.93543  0.50000  1
 Cu  Cu6  1  0.06457  0.79456  0.50000  1
 Cu  Cu7  1  0.82403  0.67597  0.75266  1
 Cu  Cu8  1  0.93543  0.20544  0.50000  1
 Cu  Cu9  1  0.70544  0.43543  0.50000  1
 Cu  Cu10  1  0.56457  0.70544  0.50000  1
 Cu  Cu11  1  0.43543  0.29456  0.50000  1
 Cu  Cu12  1  0.82403  0.67597  0.24734  1
 Cu  Cu13  1  0.32403  0.82403  0.75266  1
 Cu  Cu14  1  0.32403  0.82403  0.24734  1
 Cu  Cu15  1  0.17597  0.32403  0.24734  1
 Cu  Cu16  1  0.17597  0.32403  0.75266  1
 Cu  Cu17  1  0.67597  0.17597  0.75266  1
 Cu  Cu18  1  0.29456  0.56457  0.50000  1
 In  In1  1  0.37610  0.12390  0.00000  1
 In  In2  1  0.62390  0.87610  0.00000  1
 In  In3  1  0.87610  0.37610  0.00000  1
 In  In4  1  0.12390  0.62390  0.00000  1
 Pr  Pr1  1  0.50000  0.50000  0.00000  1
 Pr  Pr2  1  0.00000  0.00000  0.00000  1
