CIF file written using JARVIS-Tools package.
data_AsP2
_symmetry_space_group_name_H-M  'Pmm2'
_cell_length_a       5.36793
_cell_length_b       2.75574
_cell_length_c       5.53074
_cell_angle_alpha    90
_cell_angle_beta     90
_cell_angle_gamma    90

_symmetry_Int_Tables_number  25
_chemical_formula_structural  AsP2
_chemical_formula_sum  AsP2
_cell_volume  81.81405569516463
_cell_formula_units_Z  1
loop_
  _symmetry_equiv_pos_site_id
 _symmetry_equiv_pos_as_xyz
 1  'x, y, z'
loop_
 _atom_site_type_symbol
 _atom_site_label
 _atom_site_symmetry_multiplicity
 _atom_site_fract_x
 _atom_site_fract_y
 _atom_site_fract_z
 _atom_site_fract_occupancy
 As  As1  1  0.39119  0.00000  0.00000  1
 P  P1  1  0.00441  0.00000  0.80105  1
 P  P2  1  0.00441  0.00000  0.19895  1
