CIF file written using JARVIS-Tools package.
data_As2P
_symmetry_space_group_name_H-M  'Amm2'
_cell_length_a       5.51936
_cell_length_b       2.81286
_cell_length_c       5.52229
_cell_angle_alpha    90
_cell_angle_beta     119.021
_cell_angle_gamma    90

_symmetry_Int_Tables_number  38
_chemical_formula_structural  As2P
_chemical_formula_sum  As2P
_cell_volume  74.96994905455914
_cell_formula_units_Z  1
loop_
  _symmetry_equiv_pos_site_id
 _symmetry_equiv_pos_as_xyz
 1  'x, y, z'
loop_
 _atom_site_type_symbol
 _atom_site_label
 _atom_site_symmetry_multiplicity
 _atom_site_fract_x
 _atom_site_fract_y
 _atom_site_fract_z
 _atom_site_fract_occupancy
 As  As1  1  -0.52247  0.00000  -0.44897  1
 As  As2  1  0.21750  0.00000  0.81078  1
 P  P1  1  0.70497  0.00000  0.03819  1
