CIF file written using JARVIS-Tools package.
data_Ho12Co5Bi
_symmetry_space_group_name_H-M  'Immm'
_cell_length_a       8.20567
_cell_length_b       8.20566
_cell_length_c       8.20566
_cell_angle_alpha    111.073
_cell_angle_beta     110.617
_cell_angle_gamma    106.757

_symmetry_Int_Tables_number  71
_chemical_formula_structural  Ho12Co5Bi
_chemical_formula_sum  Ho2Co5Bi
_cell_volume  424.60495089062806
_cell_formula_units_Z  1
loop_
  _symmetry_equiv_pos_site_id
 _symmetry_equiv_pos_as_xyz
 1  'x, y, z'
loop_
 _atom_site_type_symbol
 _atom_site_label
 _atom_site_symmetry_multiplicity
 _atom_site_fract_x
 _atom_site_fract_y
 _atom_site_fract_z
 _atom_site_fract_occupancy
 Bi  Bi1  1  0.50000  0.50000  0.00000  1
 Co  Co1  1  0.11251  0.61251  0.50000  1
 Co  Co2  1  0.37593  0.00000  0.37593  1
 Co  Co3  1  0.62407  0.00000  0.62407  1
 Co  Co4  1  0.00000  0.00000  0.00000  1
 Co  Co5  1  0.88749  0.38749  0.50000  1
 Ho  Ho1  1  0.31134  0.61971  0.30837  1
 Ho  Ho2  1  0.18386  0.28887  0.47274  1
 Ho  Ho3  1  0.18386  0.71113  0.89499  1
 Ho  Ho4  1  0.81614  0.71113  0.52726  1
 Ho  Ho5  1  0.60011  0.79409  0.80602  1
 Ho  Ho6  1  0.68866  0.99702  0.30837  1
 Ho  Ho7  1  0.31134  0.00298  0.69163  1
 Ho  Ho8  1  0.39989  0.20591  0.19398  1
 Ho  Ho9  1  0.98807  0.79409  0.19398  1
 Ho  Ho10  1  0.01193  0.20591  0.80602  1
 Ho  Ho11  1  0.68866  0.38029  0.69163  1
 Ho  Ho12  1  0.81614  0.28887  0.10501  1
