CIF file written using JARVIS-Tools package.
data_BHO2
_symmetry_space_group_name_H-M  'R3m'
_cell_length_a       4.59305
_cell_length_b       4.59305
_cell_length_c       4.59305
_cell_angle_alpha    31.5442
_cell_angle_beta     31.5442
_cell_angle_gamma    31.5441

_symmetry_Int_Tables_number  160
_chemical_formula_structural  BHO2
_chemical_formula_sum  BHO2
_cell_volume  23.545550538492932
_cell_formula_units_Z  1
loop_
  _symmetry_equiv_pos_site_id
 _symmetry_equiv_pos_as_xyz
 1  'x, y, z'
loop_
 _atom_site_type_symbol
 _atom_site_label
 _atom_site_symmetry_multiplicity
 _atom_site_fract_x
 _atom_site_fract_y
 _atom_site_fract_z
 _atom_site_fract_occupancy
 B  B1  1  0.00457  0.00457  0.00457  1
 H  H1  1  0.51751  0.51751  0.51751  1
 O  O1  1  0.39599  0.39599  0.39599  1
 O  O2  1  0.59534  0.59534  0.59534  1
