CIF file written using JARVIS-Tools package.
data_Dy2Si3Pd
_symmetry_space_group_name_H-M  'P6/mmm'
_cell_length_a       8.16161
_cell_length_b       8.16161
_cell_length_c       8.07209
_cell_angle_alpha    90
_cell_angle_beta     90
_cell_angle_gamma    120

_symmetry_Int_Tables_number  191
_chemical_formula_structural  Dy2Si3Pd
_chemical_formula_sum  Dy8Si2Pd4
_cell_volume  465.65870861234265
_cell_formula_units_Z  4
loop_
  _symmetry_equiv_pos_site_id
 _symmetry_equiv_pos_as_xyz
 1  'x, y, z'
loop_
 _atom_site_type_symbol
 _atom_site_label
 _atom_site_symmetry_multiplicity
 _atom_site_fract_x
 _atom_site_fract_y
 _atom_site_fract_z
 _atom_site_fract_occupancy
 Dy  Dy1  1  0.49999  -0.00002  0.25000  1
 Dy  Dy2  1  0.50001  0.00002  0.75000  1
 Dy  Dy3  1  0.00002  0.50001  0.25000  1
 Dy  Dy4  1  -0.00002  0.49999  0.75000  1
 Dy  Dy5  1  0.49999  0.50001  0.25000  1
 Dy  Dy6  1  0.50001  0.49999  0.75000  1
 Dy  Dy7  1  0.00000  0.00000  0.25000  1
 Dy  Dy8  1  0.00000  0.00000  0.75000  1
 Pd  Pd1  1  0.33333  0.66667  -0.00003  1
 Pd  Pd2  1  0.66667  0.33333  0.49997  1
 Pd  Pd3  1  0.66667  0.33333  0.00003  1
 Pd  Pd4  1  0.33333  0.66667  0.50003  1
 Si  Si1  1  0.33109  0.16554  0.49999  1
 Si  Si2  1  0.16554  0.83446  -0.00001  1
 Si  Si3  1  0.83446  0.66891  0.49999  1
 Si  Si4  1  0.33109  0.16554  0.00001  1
 Si  Si5  1  0.66891  0.83446  -0.00001  1
 Si  Si6  1  0.83446  0.66891  0.00001  1
 Si  Si7  1  0.16554  0.33109  -0.00001  1
 Si  Si8  1  0.16554  0.33109  0.50001  1
 Si  Si9  1  0.83446  0.16554  0.49999  1
 Si  Si10  1  0.16554  0.83446  0.50001  1
 Si  Si11  1  0.66891  0.83446  0.50001  1
 Si  Si12  1  0.83446  0.16554  0.00001  1
