CIF file written using JARVIS-Tools package.
data_TlCN
_symmetry_space_group_name_H-M  'R3m'
_cell_length_a       3.88248
_cell_length_b       3.88248
_cell_length_c       3.88249
_cell_angle_alpha    88.1863
_cell_angle_beta     88.1863
_cell_angle_gamma    88.1864

_symmetry_Int_Tables_number  160
_chemical_formula_structural  TlCN
_chemical_formula_sum  TlCN
_cell_volume  58.437442210796085
_cell_formula_units_Z  1
loop_
  _symmetry_equiv_pos_site_id
 _symmetry_equiv_pos_as_xyz
 1  'x, y, z'
loop_
 _atom_site_type_symbol
 _atom_site_label
 _atom_site_symmetry_multiplicity
 _atom_site_fract_x
 _atom_site_fract_y
 _atom_site_fract_z
 _atom_site_fract_occupancy
 C  C1  1  0.56796  0.56796  0.56796  1
 N  N1  1  0.39747  0.39747  0.39747  1
 Tl  Tl1  1  0.97957  0.97957  0.97957  1
