CIF file written using JARVIS-Tools package.
data_SrCN
_symmetry_space_group_name_H-M  'Pm'
_cell_length_a       6.41677
_cell_length_b       4.18815
_cell_length_c       4.18353
_cell_angle_alpha    90
_cell_angle_beta     90
_cell_angle_gamma    40.1373

_symmetry_Int_Tables_number  6
_chemical_formula_structural  SrCN
_chemical_formula_sum  SrCN
_cell_volume  72.47462372442
_cell_formula_units_Z  1
loop_
  _symmetry_equiv_pos_site_id
 _symmetry_equiv_pos_as_xyz
 1  'x, y, z'
loop_
 _atom_site_type_symbol
 _atom_site_label
 _atom_site_symmetry_multiplicity
 _atom_site_fract_x
 _atom_site_fract_y
 _atom_site_fract_z
 _atom_site_fract_occupancy
 C  C1  1  0.36382  0.08367  0.00000  1
 N  N1  1  0.17602  0.08360  0.00000  1
 Sr  Sr1  1  -0.22564  0.08346  0.00000  1
