CIF file written using JARVIS-Tools package.
data_USi3Ni2
_symmetry_space_group_name_H-M  'I4/mmm'
_cell_length_a       12.0972
_cell_length_b       12.0972
_cell_length_c       12.0972
_cell_angle_alpha    161.283
_cell_angle_beta     161.283
_cell_angle_gamma    26.59

_symmetry_Int_Tables_number  139
_chemical_formula_structural  USi3Ni2
_chemical_formula_sum  U2Si6Ni4
_cell_volume  182.22369332675018
_cell_formula_units_Z  2
loop_
  _symmetry_equiv_pos_site_id
 _symmetry_equiv_pos_as_xyz
 1  'x, y, z'
loop_
 _atom_site_type_symbol
 _atom_site_label
 _atom_site_symmetry_multiplicity
 _atom_site_fract_x
 _atom_site_fract_y
 _atom_site_fract_z
 _atom_site_fract_occupancy
 Ni  Ni1  1  0.75000  0.25000  0.50000  1
 Ni  Ni2  1  0.25000  0.75000  0.50000  1
 Ni  Ni3  1  0.59935  0.59935  0.00000  1
 Ni  Ni4  1  0.40065  0.40065  0.00000  1
 Si  Si1  1  0.94987  0.44987  0.50000  1
 Si  Si2  1  0.44987  0.94987  0.50000  1
 Si  Si3  1  0.05013  0.55013  0.50000  1
 Si  Si4  1  0.55013  0.05013  0.50000  1
 Si  Si5  1  0.69699  0.69699  0.00000  1
 Si  Si6  1  0.30301  0.30301  -0.00000  1
 U  U1  1  0.84917  0.84917  -0.00000  1
 U  U2  1  0.15083  0.15083  0.00000  1
