CIF file written using JARVIS-Tools package.
data_TlCN2
_symmetry_space_group_name_H-M  'R3m'
_cell_length_a       5.57022
_cell_length_b       5.57022
_cell_length_c       5.57022
_cell_angle_alpha    41.0478
_cell_angle_beta     41.0478
_cell_angle_gamma    41.0478

_symmetry_Int_Tables_number  160
_chemical_formula_structural  TlCN2
_chemical_formula_sum  TlCN2
_cell_volume  67.2909518469235
_cell_formula_units_Z  1
loop_
  _symmetry_equiv_pos_site_id
 _symmetry_equiv_pos_as_xyz
 1  'x, y, z'
loop_
 _atom_site_type_symbol
 _atom_site_label
 _atom_site_symmetry_multiplicity
 _atom_site_fract_x
 _atom_site_fract_y
 _atom_site_fract_z
 _atom_site_fract_occupancy
 C  C1  1  0.57956  0.57956  0.57956  1
 N  N1  1  0.41870  0.41870  0.41870  1
 N  N2  1  0.49867  0.49867  0.49867  1
 Tl  Tl1  1  0.99208  0.99208  0.99208  1
