CIF file written using JARVIS-Tools package.
data_YCN2
_symmetry_space_group_name_H-M  'R-3m'
_cell_length_a       5.60946
_cell_length_b       5.60946
_cell_length_c       5.60946
_cell_angle_alpha    36.2366
_cell_angle_beta     36.2366
_cell_angle_gamma    36.2366

_symmetry_Int_Tables_number  166
_chemical_formula_structural  YCN2
_chemical_formula_sum  YCN2
_cell_volume  55.18752351221079
_cell_formula_units_Z  1
loop_
  _symmetry_equiv_pos_site_id
 _symmetry_equiv_pos_as_xyz
 1  'x, y, z'
loop_
 _atom_site_type_symbol
 _atom_site_label
 _atom_site_symmetry_multiplicity
 _atom_site_fract_x
 _atom_site_fract_y
 _atom_site_fract_z
 _atom_site_fract_occupancy
 C  C1  1  0.50000  0.50000  0.50000  1
 N  N1  1  0.42100  0.42100  0.42100  1
 N  N2  1  0.57900  0.57900  0.57900  1
 Y  Y1  1  0.00000  0.00000  0.00000  1
