CIF file written using JARVIS-Tools package.
data_Li2AuO2
_symmetry_space_group_name_H-M  'Immm'
_cell_length_a       5.33076
_cell_length_b       5.33076
_cell_length_c       5.33076
_cell_angle_alpha    144.405
_cell_angle_beta     139.787
_cell_angle_gamma    54.7742

_symmetry_Int_Tables_number  71
_chemical_formula_structural  Li2AuO2
_chemical_formula_sum  Li2AuO2
_cell_volume  56.53176634961393
_cell_formula_units_Z  1
loop_
  _symmetry_equiv_pos_site_id
 _symmetry_equiv_pos_as_xyz
 1  'x, y, z'
loop_
 _atom_site_type_symbol
 _atom_site_label
 _atom_site_symmetry_multiplicity
 _atom_site_fract_x
 _atom_site_fract_y
 _atom_site_fract_z
 _atom_site_fract_occupancy
 Au  Au1  1  0.50000  0.00000  0.50000  1
 Li  Li1  1  0.20614  0.70614  0.50000  1
 Li  Li2  1  0.79386  0.29386  0.50000  1
 O  O1  1  0.65305  0.65305  -0.00000  1
 O  O2  1  0.34695  0.34695  -0.00000  1
