CIF file written using JARVIS-Tools package.
data_LaNdCo10
_symmetry_space_group_name_H-M  'Pmmm'
_cell_length_a       3.93256
_cell_length_b       4.99985
_cell_length_c       8.67906
_cell_angle_alpha    90
_cell_angle_beta     90
_cell_angle_gamma    90

_symmetry_Int_Tables_number  47
_chemical_formula_structural  LaNdCo10
_chemical_formula_sum  LaNdCo0
_cell_volume  170.64927777916517
_cell_formula_units_Z  1
loop_
  _symmetry_equiv_pos_site_id
 _symmetry_equiv_pos_as_xyz
 1  'x, y, z'
loop_
 _atom_site_type_symbol
 _atom_site_label
 _atom_site_symmetry_multiplicity
 _atom_site_fract_x
 _atom_site_fract_y
 _atom_site_fract_z
 _atom_site_fract_occupancy
 Co  Co1  1  0.00000  0.99998  0.33131  1
 Co  Co2  1  0.00000  0.49999  0.83391  1
 Co  Co3  1  0.00000  0.49999  0.16609  1
 Co  Co4  1  0.00000  0.99998  0.66869  1
 Co  Co5  1  0.50000  -0.00002  0.50000  1
 Co  Co6  1  0.50000  0.49998  0.00000  1
 Co  Co7  1  0.50000  0.25443  0.25438  1
 Co  Co8  1  0.50000  0.74554  0.74562  1
 Co  Co9  1  0.50000  0.74554  0.25438  1
 Co  Co10  1  0.50000  0.25443  0.74562  1
 La  La1  1  0.00000  -0.00002  -0.00000  1
 Nd  Nd1  1  0.00000  0.49998  0.50000  1
