CIF file written using JARVIS-Tools package.
data_Li2AlCoO4
_symmetry_space_group_name_H-M  'Pc'
_cell_length_a       5.39682
_cell_length_b       4.97468
_cell_length_c       8.02613
_cell_angle_alpha    51.8211
_cell_angle_beta     90
_cell_angle_gamma    90

_symmetry_Int_Tables_number  7
_chemical_formula_structural  Li2AlCoO4
_chemical_formula_sum  Li4Al2Co2O8
_cell_volume  169.3864879947058
_cell_formula_units_Z  2
loop_
  _symmetry_equiv_pos_site_id
 _symmetry_equiv_pos_as_xyz
 1  'x, y, z'
loop_
 _atom_site_type_symbol
 _atom_site_label
 _atom_site_symmetry_multiplicity
 _atom_site_fract_x
 _atom_site_fract_y
 _atom_site_fract_z
 _atom_site_fract_occupancy
 Al  Al1  1  0.67013  0.75091  0.24631  1
 Al  Al2  1  0.32987  0.75091  0.74631  1
 Co  Co1  1  0.16727  0.99921  0.00014  1
 Co  Co2  1  0.83273  0.99921  0.50014  1
 Li  Li1  1  0.33196  0.25519  0.24736  1
 Li  Li2  1  0.83229  0.50652  0.99573  1
 Li  Li3  1  0.66804  0.25519  0.74736  1
 Li  Li4  1  0.16771  0.50652  0.49573  1
 O  O1  1  0.67945  0.38185  0.25684  1
 O  O2  1  0.18157  0.64212  0.97875  1
 O  O3  1  0.16653  0.08672  0.51492  1
 O  O4  1  0.64432  0.86606  0.73706  1
 O  O5  1  0.32055  0.38185  0.75684  1
 O  O6  1  0.81843  0.64212  0.47875  1
 O  O7  1  0.83347  0.08672  0.01492  1
 O  O8  1  0.35568  0.86606  0.23706  1
