CIF file written using JARVIS-Tools package.
data_LiV2F7
_symmetry_space_group_name_H-M  'C2/c'
_cell_length_a       7.44328
_cell_length_b       7.44328
_cell_length_c       5.16319
_cell_angle_alpha    73.9943
_cell_angle_beta     73.9943
_cell_angle_gamma    58.1852

_symmetry_Int_Tables_number  15
_chemical_formula_structural  LiV2F7
_chemical_formula_sum  Li2V4F4
_cell_volume  230.6571263007926
_cell_formula_units_Z  2
loop_
  _symmetry_equiv_pos_site_id
 _symmetry_equiv_pos_as_xyz
 1  'x, y, z'
loop_
 _atom_site_type_symbol
 _atom_site_label
 _atom_site_symmetry_multiplicity
 _atom_site_fract_x
 _atom_site_fract_y
 _atom_site_fract_z
 _atom_site_fract_occupancy
 F  F1  1  0.80557  0.57834  0.50519  1
 F  F2  1  0.63575  0.27948  0.53547  1
 F  F3  1  0.27948  0.63575  0.03547  1
 F  F4  1  0.92197  0.85114  0.48649  1
 F  F5  1  0.36425  0.72052  0.46453  1
 F  F6  1  0.42166  0.19443  -0.00519  1
 F  F7  1  0.85114  0.92197  0.98649  1
 F  F8  1  0.50000  -0.00000  0.50000  1
 F  F9  1  0.00000  0.50000  0.00000  1
 F  F10  1  0.72052  0.36425  0.96453  1
 F  F11  1  0.57834  0.80557  0.00519  1
 F  F12  1  0.07803  0.14886  0.51351  1
 F  F13  1  0.14886  0.07803  0.01351  1
 F  F14  1  0.19443  0.42166  0.49481  1
 Li  Li1  1  0.49228  0.50772  0.75000  1
 Li  Li2  1  0.50772  0.49228  0.25000  1
 V  V1  1  0.98823  0.33990  0.76784  1
 V  V2  1  0.33990  0.98823  0.26784  1
 V  V3  1  0.01177  0.66010  0.23216  1
 V  V4  1  0.66010  0.01177  0.73216  1
