CIF file written using JARVIS-Tools package.
data_YCN
_symmetry_space_group_name_H-M  'R3m'
_cell_length_a       3.38359
_cell_length_b       3.38359
_cell_length_c       3.3836
_cell_angle_alpha    88.2077
_cell_angle_beta     88.2077
_cell_angle_gamma    88.2078

_symmetry_Int_Tables_number  160
_chemical_formula_structural  YCN
_chemical_formula_sum  YCN
_cell_volume  38.68215655784196
_cell_formula_units_Z  1
loop_
  _symmetry_equiv_pos_site_id
 _symmetry_equiv_pos_as_xyz
 1  'x, y, z'
loop_
 _atom_site_type_symbol
 _atom_site_label
 _atom_site_symmetry_multiplicity
 _atom_site_fract_x
 _atom_site_fract_y
 _atom_site_fract_z
 _atom_site_fract_occupancy
 C  C1  1  0.58944  0.58944  0.58944  1
 N  N1  1  0.37964  0.37964  0.37964  1
 Y  Y1  1  -0.02408  -0.02408  -0.02408  1
