CIF file written using JARVIS-Tools package.
data_LiMn5Cu2O12
_symmetry_space_group_name_H-M  'C2'
_cell_length_a       4.99801
_cell_length_b       4.99801
_cell_length_c       9.04189
_cell_angle_alpha    86.2655
_cell_angle_beta     93.7345
_cell_angle_gamma    65.4828

_symmetry_Int_Tables_number  5
_chemical_formula_structural  LiMn5Cu2O12
_chemical_formula_sum  LiMn5Cu2O2
_cell_volume  204.00715868448842
_cell_formula_units_Z  1
loop_
  _symmetry_equiv_pos_site_id
 _symmetry_equiv_pos_as_xyz
 1  'x, y, z'
loop_
 _atom_site_type_symbol
 _atom_site_label
 _atom_site_symmetry_multiplicity
 _atom_site_fract_x
 _atom_site_fract_y
 _atom_site_fract_z
 _atom_site_fract_occupancy
 Cu  Cu1  1  0.24398  0.24398  0.75000  1
 Cu  Cu2  1  0.75289  0.75289  0.25000  1
 Li  Li1  1  0.92045  0.92045  0.75000  1
 Mn  Mn1  1  0.08270  0.08270  0.25000  1
 Mn  Mn2  1  0.42505  0.42505  0.25000  1
 Mn  Mn3  1  0.57565  0.57565  0.75000  1
 Mn  Mn4  1  0.51219  -0.00384  0.51109  1
 Mn  Mn5  1  -0.00384  0.51219  0.98891  1
 O  O1  1  0.18842  0.31660  0.37776  1
 O  O2  1  0.91588  0.26969  0.86078  1
 O  O3  1  0.31660  0.18842  0.12224  1
 O  O4  1  0.26258  0.55201  0.86412  1
 O  O5  1  0.08999  0.74852  0.14132  1
 O  O6  1  0.76249  0.41583  0.14181  1
 O  O7  1  0.41583  0.76249  0.35819  1
 O  O8  1  0.74852  0.08999  0.35868  1
 O  O9  1  0.26969  0.91588  0.63922  1
 O  O10  1  0.66581  0.79979  0.88560  1
 O  O11  1  0.55201  0.26258  0.63588  1
 O  O12  1  0.79979  0.66581  0.61440  1
