CIF file written using JARVIS-Tools package.
data_LiMnF3
_symmetry_space_group_name_H-M  'Cmmm'
_cell_length_a       6.32127
_cell_length_b       6.32127
_cell_length_c       6.39095
_cell_angle_alpha    90
_cell_angle_beta     90
_cell_angle_gamma    108.128

_symmetry_Int_Tables_number  65
_chemical_formula_structural  LiMnF3
_chemical_formula_sum  Li4Mn4F2
_cell_volume  242.69693886249667
_cell_formula_units_Z  4
loop_
  _symmetry_equiv_pos_site_id
 _symmetry_equiv_pos_as_xyz
 1  'x, y, z'
loop_
 _atom_site_type_symbol
 _atom_site_label
 _atom_site_symmetry_multiplicity
 _atom_site_fract_x
 _atom_site_fract_y
 _atom_site_fract_z
 _atom_site_fract_occupancy
 F  F1  1  0.55140  0.80699  0.75000  1
 F  F2  1  0.44866  0.19300  0.75000  1
 F  F3  1  0.55134  0.80700  0.25000  1
 F  F4  1  0.44860  0.19301  0.25000  1
 F  F5  1  0.19301  0.44860  0.75000  1
 F  F6  1  0.19300  0.44866  0.25000  1
 F  F7  1  0.86362  0.13638  0.00001  1
 F  F8  1  0.86362  0.13638  0.49999  1
 F  F9  1  0.13638  0.86362  -0.00001  1
 F  F10  1  0.80700  0.55134  0.75000  1
 F  F11  1  0.80699  0.55140  0.25000  1
 F  F12  1  0.13638  0.86362  0.50001  1
 Li  Li1  1  0.99993  0.00007  0.75000  1
 Li  Li2  1  0.50000  0.50000  0.25000  1
 Li  Li3  1  0.00007  0.99993  0.25000  1
 Li  Li4  1  0.50000  0.50000  0.75000  1
 Mn  Mn1  1  -0.00000  0.50000  0.00000  1
 Mn  Mn2  1  -0.00000  0.50000  0.50000  1
 Mn  Mn3  1  0.50000  -0.00000  0.50000  1
 Mn  Mn4  1  0.50000  -0.00000  0.00000  1
