CIF file written using JARVIS-Tools package.
data_YC2N
_symmetry_space_group_name_H-M  'P4/mmm'
_cell_length_a       3.46837
_cell_length_b       3.46837
_cell_length_c       3.56321
_cell_angle_alpha    90
_cell_angle_beta     90
_cell_angle_gamma    90

_symmetry_Int_Tables_number  123
_chemical_formula_structural  YC2N
_chemical_formula_sum  YC2N
_cell_volume  42.863965740146256
_cell_formula_units_Z  1
loop_
  _symmetry_equiv_pos_site_id
 _symmetry_equiv_pos_as_xyz
 1  'x, y, z'
loop_
 _atom_site_type_symbol
 _atom_site_label
 _atom_site_symmetry_multiplicity
 _atom_site_fract_x
 _atom_site_fract_y
 _atom_site_fract_z
 _atom_site_fract_occupancy
 C  C1  1  0.00000  0.50000  0.00003  1
 C  C2  1  0.50000  0.00000  -0.00003  1
 N  N1  1  0.00000  0.00000  0.00000  1
 Y  Y1  1  0.50000  0.50000  0.50000  1
