CIF file written using JARVIS-Tools package.
data_Mn4NiO8
_symmetry_space_group_name_H-M  'C2/m'
_cell_length_a       5.83188
_cell_length_b       5.83187
_cell_length_c       5.72132
_cell_angle_alpha    60.2519
_cell_angle_beta     60.2519
_cell_angle_gamma    58.7344

_symmetry_Int_Tables_number  12
_chemical_formula_structural  Mn4NiO8
_chemical_formula_sum  Mn4NiO8
_cell_volume  136.73638760958184
_cell_formula_units_Z  1
loop_
  _symmetry_equiv_pos_site_id
 _symmetry_equiv_pos_as_xyz
 1  'x, y, z'
loop_
 _atom_site_type_symbol
 _atom_site_label
 _atom_site_symmetry_multiplicity
 _atom_site_fract_x
 _atom_site_fract_y
 _atom_site_fract_z
 _atom_site_fract_occupancy
 Mn  Mn1  1  0.50000  0.50000  0.50000  1
 Mn  Mn2  1  0.00000  0.00000  0.00000  1
 Mn  Mn3  1  -0.00000  0.50000  0.00000  1
 Mn  Mn4  1  0.50000  0.00000  -0.00000  1
 Ni  Ni1  1  0.50000  0.50000  -0.00000  1
 O  O1  1  0.73678  0.73678  0.79716  1
 O  O2  1  0.72273  0.23690  0.77618  1
 O  O3  1  0.23690  0.72273  0.77618  1
 O  O4  1  0.25072  0.25072  0.77209  1
 O  O5  1  0.74928  0.74928  0.22791  1
 O  O6  1  0.76310  0.27727  0.22382  1
 O  O7  1  0.27727  0.76310  0.22382  1
 O  O8  1  0.26322  0.26322  0.20284  1
