CIF file written using JARVIS-Tools package.
data_Sr3WO6
_symmetry_space_group_name_H-M  'R-3'
_cell_length_a       6.87204
_cell_length_b       6.87204
_cell_length_c       6.87204
_cell_angle_alpha    91.8476
_cell_angle_beta     91.8476
_cell_angle_gamma    91.8475

_symmetry_Int_Tables_number  148
_chemical_formula_structural  Sr3WO6
_chemical_formula_sum  Sr6W2O2
_cell_volume  324.0142696798005
_cell_formula_units_Z  2
loop_
  _symmetry_equiv_pos_site_id
 _symmetry_equiv_pos_as_xyz
 1  'x, y, z'
loop_
 _atom_site_type_symbol
 _atom_site_label
 _atom_site_symmetry_multiplicity
 _atom_site_fract_x
 _atom_site_fract_y
 _atom_site_fract_z
 _atom_site_fract_occupancy
 O  O1  1  0.27070  0.94172  0.06838  1
 O  O2  1  0.06838  0.27070  0.94172  1
 O  O3  1  0.94172  0.06838  0.27070  1
 O  O4  1  0.45334  0.57373  0.77106  1
 O  O5  1  0.72930  0.05828  0.93162  1
 O  O6  1  0.05828  0.93162  0.72930  1
 O  O7  1  0.42627  0.22894  0.54666  1
 O  O8  1  0.57373  0.77106  0.45334  1
 O  O9  1  0.77106  0.45334  0.57373  1
 O  O10  1  0.93162  0.72930  0.05828  1
 O  O11  1  0.54666  0.42627  0.22894  1
 O  O12  1  0.22894  0.54666  0.42627  1
 Sr  Sr1  1  0.93530  0.74624  0.43637  1
 Sr  Sr2  1  0.56363  0.06470  0.25376  1
 Sr  Sr3  1  0.25376  0.56363  0.06470  1
 Sr  Sr4  1  0.74624  0.43637  0.93530  1
 Sr  Sr5  1  0.43637  0.93530  0.74624  1
 Sr  Sr6  1  0.06470  0.25376  0.56363  1
 W  W1  1  0.00000  0.00000  0.00000  1
 W  W2  1  0.50000  0.50000  0.50000  1
