CIF file written using JARVIS-Tools package.
data_Tb2Al3Ge4
_symmetry_space_group_name_H-M  'Cmce'
_cell_length_a       7.96197
_cell_length_b       7.96196
_cell_length_c       7.92322
_cell_angle_alpha    90
_cell_angle_beta     90
_cell_angle_gamma    135.356

_symmetry_Int_Tables_number  64
_chemical_formula_structural  Tb2Al3Ge4
_chemical_formula_sum  Tb4Al6Ge8
_cell_volume  352.9477369122085
_cell_formula_units_Z  2
loop_
  _symmetry_equiv_pos_site_id
 _symmetry_equiv_pos_as_xyz
 1  'x, y, z'
loop_
 _atom_site_type_symbol
 _atom_site_label
 _atom_site_symmetry_multiplicity
 _atom_site_fract_x
 _atom_site_fract_y
 _atom_site_fract_z
 _atom_site_fract_occupancy
 Al  Al1  1  0.00000  0.00000  0.00000  1
 Al  Al2  1  0.53475  0.96525  0.25000  1
 Al  Al3  1  0.46525  0.03475  0.75000  1
 Al  Al4  1  0.96525  0.53475  0.75000  1
 Al  Al5  1  0.50000  0.50000  0.50000  1
 Al  Al6  1  0.03475  0.46525  0.25000  1
 Ge  Ge1  1  0.18617  0.81383  0.05585  1
 Ge  Ge2  1  0.70615  0.79385  0.25000  1
 Ge  Ge3  1  0.79385  0.70615  0.75000  1
 Ge  Ge4  1  0.29385  0.20615  0.75000  1
 Ge  Ge5  1  0.20615  0.29385  0.25000  1
 Ge  Ge6  1  0.68617  0.31383  0.44415  1
 Ge  Ge7  1  0.81383  0.18617  0.94415  1
 Ge  Ge8  1  0.31383  0.68617  0.55585  1
 Tb  Tb1  1  0.61483  0.38517  0.08047  1
 Tb  Tb2  1  0.38517  0.61483  0.91953  1
 Tb  Tb3  1  0.88517  0.11483  0.58047  1
 Tb  Tb4  1  0.11483  0.88517  0.41953  1
