CIF file written using JARVIS-Tools package.
data_C2S
_symmetry_space_group_name_H-M  'Pmm2'
_cell_length_a       3.76856
_cell_length_b       3.79256
_cell_length_c       6.69186
_cell_angle_alpha    90
_cell_angle_beta     90
_cell_angle_gamma    90

_symmetry_Int_Tables_number  25
_chemical_formula_structural  C2S
_chemical_formula_sum  C2S
_cell_volume  95.64327445475017
_cell_formula_units_Z  1
loop_
  _symmetry_equiv_pos_site_id
 _symmetry_equiv_pos_as_xyz
 1  'x, y, z'
loop_
 _atom_site_type_symbol
 _atom_site_label
 _atom_site_symmetry_multiplicity
 _atom_site_fract_x
 _atom_site_fract_y
 _atom_site_fract_z
 _atom_site_fract_occupancy
 C  C1  1  0.02630  0.00000  0.24590  1
 C  C2  1  0.02630  0.00000  0.75410  1
 S  S1  1  0.07390  0.00000  0.00000  1
