CIF file written using JARVIS-Tools package.
data_BiPtSe
_symmetry_space_group_name_H-M  'P2_13'
_cell_length_a       6.56351
_cell_length_b       6.56351
_cell_length_c       6.56351
_cell_angle_alpha    90
_cell_angle_beta     90
_cell_angle_gamma    90

_symmetry_Int_Tables_number  198
_chemical_formula_structural  BiPtSe
_chemical_formula_sum  Bi4Pt4Se4
_cell_volume  282.75408686236824
_cell_formula_units_Z  4
loop_
  _symmetry_equiv_pos_site_id
 _symmetry_equiv_pos_as_xyz
 1  'x, y, z'
loop_
 _atom_site_type_symbol
 _atom_site_label
 _atom_site_symmetry_multiplicity
 _atom_site_fract_x
 _atom_site_fract_y
 _atom_site_fract_z
 _atom_site_fract_occupancy
 Bi  Bi1  1  0.12891  0.62891  0.87109  1
 Bi  Bi2  1  0.62891  0.87109  0.12891  1
 Bi  Bi3  1  0.87109  0.12891  0.62891  1
 Bi  Bi4  1  0.37109  0.37109  0.37109  1
 Pt  Pt1  1  0.48912  0.98912  0.51088  1
 Pt  Pt2  1  0.98912  0.51088  0.48912  1
 Pt  Pt3  1  0.51088  0.48912  0.98912  1
 Pt  Pt4  1  0.01088  0.01088  0.01088  1
 Se  Se1  1  0.87937  0.37937  0.12063  1
 Se  Se2  1  0.37937  0.12063  0.87937  1
 Se  Se3  1  0.12063  0.87937  0.37937  1
 Se  Se4  1  0.62063  0.62063  0.62063  1
