CIF file written using JARVIS-Tools package.
data_BaSiC
_symmetry_space_group_name_H-M  'I4mm'
_cell_length_a       5.22016
_cell_length_b       5.22016
_cell_length_c       5.22016
_cell_angle_alpha    125.62
_cell_angle_beta     125.62
_cell_angle_gamma    80.5142

_symmetry_Int_Tables_number  107
_chemical_formula_structural  BaSiC
_chemical_formula_sum  BaSiC
_cell_volume  90.66766117143025
_cell_formula_units_Z  1
loop_
  _symmetry_equiv_pos_site_id
 _symmetry_equiv_pos_as_xyz
 1  'x, y, z'
loop_
 _atom_site_type_symbol
 _atom_site_label
 _atom_site_symmetry_multiplicity
 _atom_site_fract_x
 _atom_site_fract_y
 _atom_site_fract_z
 _atom_site_fract_occupancy
 Ba  Ba1  1  0.99221  0.99221  0.00000  1
 C  C1  1  0.62996  0.62996  -0.00000  1
 Si  Si1  1  0.41583  0.41583  0.00000  1
