CIF file written using JARVIS-Tools package.
data_LiCoPO4
_symmetry_space_group_name_H-M  'Pc'
_cell_length_a       5.04648
_cell_length_b       8.52438
_cell_length_c       8.32927
_cell_angle_alpha    107.873
_cell_angle_beta     90
_cell_angle_gamma    90

_symmetry_Int_Tables_number  7
_chemical_formula_structural  LiCoPO4
_chemical_formula_sum  Li4Co4P4O6
_cell_volume  341.01714178151923
_cell_formula_units_Z  4
loop_
  _symmetry_equiv_pos_site_id
 _symmetry_equiv_pos_as_xyz
 1  'x, y, z'
loop_
 _atom_site_type_symbol
 _atom_site_label
 _atom_site_symmetry_multiplicity
 _atom_site_fract_x
 _atom_site_fract_y
 _atom_site_fract_z
 _atom_site_fract_occupancy
 Co  Co1  1  0.32689  0.24700  0.48648  1
 Co  Co2  1  0.17687  0.74158  0.84717  1
 Co  Co3  1  0.67311  0.24700  0.98648  1
 Co  Co4  1  0.82314  0.74158  0.34716  1
 Li  Li1  1  0.82784  0.98656  0.10877  1
 Li  Li2  1  0.17216  0.98656  0.60877  1
 Li  Li3  1  0.32169  0.49733  0.25102  1
 Li  Li4  1  0.67831  0.49733  0.75102  1
 O  O1  1  0.81506  0.89775  0.57481  1
 O  O2  1  0.38044  0.83627  0.69633  1
 O  O3  1  0.61956  0.83627  0.19633  1
 O  O4  1  0.18494  0.89775  0.07481  1
 O  O5  1  0.31724  0.34530  0.02179  1
 O  O6  1  0.26046  0.01205  0.38799  1
 O  O7  1  0.80746  0.71027  0.76182  1
 O  O8  1  0.68276  0.34530  0.52179  1
 O  O9  1  0.75511  0.21607  0.20984  1
 O  O10  1  0.11883  0.39495  0.39435  1
 O  O11  1  0.69482  0.51987  0.32133  1
 O  O12  1  0.30518  0.51987  0.82133  1
 O  O13  1  0.19254  0.71027  0.26182  1
 O  O14  1  0.88117  0.39495  0.89436  1
 O  O15  1  0.24489  0.21607  0.70984  1
 O  O16  1  0.73954  0.01205  0.88799  1
 P  P1  1  0.31801  0.86460  0.22912  1
 P  P2  1  0.68199  0.86459  0.72912  1
 P  P3  1  0.81641  0.36922  0.36297  1
 P  P4  1  0.18359  0.36922  0.86297  1
