CIF file written using JARVIS-Tools package.
data_CaC3
_symmetry_space_group_name_H-M  'C2'
_cell_length_a       4.76239
_cell_length_b       3.81192
_cell_length_c       4.77103
_cell_angle_alpha    122.126
_cell_angle_beta     94.1872
_cell_angle_gamma    122.311

_symmetry_Int_Tables_number  5
_chemical_formula_structural  CaC3
_chemical_formula_sum  CaC3
_cell_volume  53.719252458399055
_cell_formula_units_Z  1
loop_
  _symmetry_equiv_pos_site_id
 _symmetry_equiv_pos_as_xyz
 1  'x, y, z'
loop_
 _atom_site_type_symbol
 _atom_site_label
 _atom_site_symmetry_multiplicity
 _atom_site_fract_x
 _atom_site_fract_y
 _atom_site_fract_z
 _atom_site_fract_occupancy
 C  C1  1  0.28530  0.05441  0.52166  1
 C  C2  1  0.40277  0.87762  0.63900  1
 C  C3  1  0.28528  0.46589  0.63916  1
 Ca  Ca1  1  0.99222  0.96751  -0.06533  1
