CIF file written using JARVIS-Tools package.
data_Nb9IrS20
_symmetry_space_group_name_H-M  'P-1'
_cell_length_a       6.80759
_cell_length_b       9.07165
_cell_length_c       10.7209
_cell_angle_alpha    76.7387
_cell_angle_beta     81.3427
_cell_angle_gamma    68.1314

_symmetry_Int_Tables_number  2
_chemical_formula_structural  Nb9IrS20
_chemical_formula_sum  Nb9IrS20
_cell_volume  596.5010237150829
_cell_formula_units_Z  1
loop_
  _symmetry_equiv_pos_site_id
 _symmetry_equiv_pos_as_xyz
 1  'x, y, z'
loop_
 _atom_site_type_symbol
 _atom_site_label
 _atom_site_symmetry_multiplicity
 _atom_site_fract_x
 _atom_site_fract_y
 _atom_site_fract_z
 _atom_site_fract_occupancy
 Ir  Ir1  1  0.00000  0.00000  0.00000  1
 Nb  Nb1  1  0.42852  0.78948  0.77997  1
 Nb  Nb2  1  0.80638  0.59048  0.58750  1
 Nb  Nb3  1  0.09902  0.18207  0.18029  1
 Nb  Nb4  1  0.90098  0.81793  0.81971  1
 Nb  Nb5  1  0.50000  0.00000  -0.00000  1
 Nb  Nb6  1  0.29181  0.60195  0.60555  1
 Nb  Nb7  1  0.57148  0.21052  0.22003  1
 Nb  Nb8  1  0.70819  0.39805  0.39445  1
 Nb  Nb9  1  0.19362  0.40952  0.41250  1
 S  S1  1  0.16419  0.72032  0.97120  1
 S  S2  1  0.24937  0.07608  0.83249  1
 S  S3  1  0.83581  0.27968  0.02880  1
 S  S4  1  0.65601  0.71140  0.96845  1
 S  S5  1  0.74986  0.09969  0.83204  1
 S  S6  1  0.95412  0.30438  0.57390  1
 S  S7  1  0.44158  0.49491  0.23085  1
 S  S8  1  0.04588  0.69562  0.42610  1
 S  S9  1  0.25014  0.90031  0.16796  1
 S  S10  1  0.45385  0.31199  0.57333  1
 S  S11  1  0.75063  0.92392  0.16751  1
 S  S12  1  0.95410  0.47683  0.23011  1
 S  S13  1  0.66440  0.88687  0.62843  1
 S  S14  1  0.34399  0.28860  0.03155  1
 S  S15  1  0.54615  0.68801  0.42667  1
 S  S16  1  0.33560  0.11313  0.37157  1
 S  S17  1  0.04590  0.52317  0.76989  1
 S  S18  1  0.14880  0.88894  0.62956  1
 S  S19  1  0.85120  0.11106  0.37044  1
 S  S20  1  0.55842  0.50509  0.76915  1
