CIF file written using JARVIS-Tools package.
data_Ca3C
_symmetry_space_group_name_H-M  'Immm'
_cell_length_a       3.81118
_cell_length_b       5.13151
_cell_length_c       6.76433
_cell_angle_alpha    112.324
_cell_angle_beta     106.272
_cell_angle_gamma    89.9989

_symmetry_Int_Tables_number  71
_chemical_formula_structural  Ca3C
_chemical_formula_sum  Ca3C
_cell_volume  116.62737259563993
_cell_formula_units_Z  1
loop_
  _symmetry_equiv_pos_site_id
 _symmetry_equiv_pos_as_xyz
 1  'x, y, z'
loop_
 _atom_site_type_symbol
 _atom_site_label
 _atom_site_symmetry_multiplicity
 _atom_site_fract_x
 _atom_site_fract_y
 _atom_site_fract_z
 _atom_site_fract_occupancy
 C  C1  1  0.11592  0.60369  0.06217  1
 Ca  Ca1  1  0.11589  0.10369  0.06215  1
 Ca  Ca2  1  0.47806  0.46518  0.78526  1
 Ca  Ca3  1  0.75377  0.74222  0.33906  1
