CIF file written using JARVIS-Tools package.
data_LiNiPO4
_symmetry_space_group_name_H-M  'Pnma'
_cell_length_a       4.80318
_cell_length_b       6.20949
_cell_length_c       9.38488
_cell_angle_alpha    90
_cell_angle_beta     90
_cell_angle_gamma    90

_symmetry_Int_Tables_number  62
_chemical_formula_structural  LiNiPO4
_chemical_formula_sum  Li4Ni4P4O6
_cell_volume  279.9065796392149
_cell_formula_units_Z  4
loop_
  _symmetry_equiv_pos_site_id
 _symmetry_equiv_pos_as_xyz
 1  'x, y, z'
loop_
 _atom_site_type_symbol
 _atom_site_label
 _atom_site_symmetry_multiplicity
 _atom_site_fract_x
 _atom_site_fract_y
 _atom_site_fract_z
 _atom_site_fract_occupancy
 Li  Li1  1  0.50000  0.50000  0.00000  1
 Li  Li2  1  0.50000  0.00000  0.00000  1
 Li  Li3  1  0.00000  0.50000  0.50000  1
 Li  Li4  1  0.00000  0.00000  0.50000  1
 Ni  Ni1  1  0.96389  0.25000  0.13978  1
 Ni  Ni2  1  0.46389  0.75000  0.36022  1
 Ni  Ni3  1  0.53611  0.25000  0.63978  1
 Ni  Ni4  1  0.03611  0.75000  0.86022  1
 O  O1  1  0.84224  0.54983  0.11105  1
 O  O2  1  0.34224  0.45017  0.38895  1
 O  O3  1  0.88765  0.75000  0.34719  1
 O  O4  1  0.28943  0.75000  0.16491  1
 O  O5  1  0.84224  0.95017  0.11105  1
 O  O6  1  0.15776  0.45017  0.88895  1
 O  O7  1  0.78943  0.25000  0.33509  1
 O  O8  1  0.38765  0.25000  0.15281  1
 O  O9  1  0.21057  0.75000  0.66491  1
 O  O10  1  0.61235  0.75000  0.84719  1
 O  O11  1  0.65776  0.95017  0.61105  1
 O  O12  1  0.11235  0.25000  0.65281  1
 O  O13  1  0.34224  0.04983  0.38895  1
 O  O14  1  0.15776  0.04983  0.88895  1
 O  O15  1  0.65776  0.54983  0.61105  1
 O  O16  1  0.71057  0.25000  0.83509  1
 P  P1  1  0.96810  0.75000  0.18505  1
 P  P2  1  0.46810  0.25000  0.31495  1
 P  P3  1  0.53190  0.75000  0.68505  1
 P  P4  1  0.03190  0.25000  0.81495  1
