CIF file written using JARVIS-Tools package.
data_BaMgSb
_symmetry_space_group_name_H-M  'Amm2'
_cell_length_a       6.94836
_cell_length_b       4.81761
_cell_length_c       3.54725
_cell_angle_alpha    90
_cell_angle_beta     90
_cell_angle_gamma    110.24

_symmetry_Int_Tables_number  38
_chemical_formula_structural  BaMgSb
_chemical_formula_sum  BaMgSb
_cell_volume  111.41038711995408
_cell_formula_units_Z  1
loop_
  _symmetry_equiv_pos_site_id
 _symmetry_equiv_pos_as_xyz
 1  'x, y, z'
loop_
 _atom_site_type_symbol
 _atom_site_label
 _atom_site_symmetry_multiplicity
 _atom_site_fract_x
 _atom_site_fract_y
 _atom_site_fract_z
 _atom_site_fract_occupancy
 Ba  Ba1  1  -0.20758  -0.20815  0.00000  1
 Mg  Mg1  1  0.40393  0.09761  0.00000  1
 Sb  Sb1  1  0.17769  0.48457  0.00000  1
