CIF file written using JARVIS-Tools package.
data_Li2NiP4O12
_symmetry_space_group_name_H-M  'P-1'
_cell_length_a       5.08337
_cell_length_b       6.82989
_cell_length_c       7.06326
_cell_angle_alpha    107.564
_cell_angle_beta     95.334
_cell_angle_gamma    107.366

_symmetry_Int_Tables_number  2
_chemical_formula_structural  Li2NiP4O12
_chemical_formula_sum  Li2NiP4O2
_cell_volume  218.57906432143565
_cell_formula_units_Z  1
loop_
  _symmetry_equiv_pos_site_id
 _symmetry_equiv_pos_as_xyz
 1  'x, y, z'
loop_
 _atom_site_type_symbol
 _atom_site_label
 _atom_site_symmetry_multiplicity
 _atom_site_fract_x
 _atom_site_fract_y
 _atom_site_fract_z
 _atom_site_fract_occupancy
 Li  Li1  1  0.66829  0.72775  0.56945  1
 Li  Li2  1  0.33171  0.27225  0.43055  1
 Ni  Ni1  1  0.00000  0.00000  0.00000  1
 O  O1  1  0.60466  0.83674  0.34797  1
 O  O2  1  0.34033  0.63792  0.98520  1
 O  O3  1  0.65967  0.36208  0.01480  1
 O  O4  1  0.06682  0.66363  0.26754  1
 O  O5  1  0.71005  0.00241  0.81522  1
 O  O6  1  0.30415  0.56189  0.60910  1
 O  O7  1  0.69585  0.43811  0.39090  1
 O  O8  1  0.03184  0.26749  0.19925  1
 O  O9  1  0.93318  0.33637  0.73246  1
 O  O10  1  0.28995  0.99759  0.18478  1
 O  O11  1  -0.03184  0.73251  0.80075  1
 O  O12  1  0.39534  0.16326  0.65203  1
 P  P1  1  0.65510  0.20300  0.79178  1
 P  P2  1  0.13836  0.57902  0.77142  1
 P  P3  1  0.86164  0.42098  0.22858  1
 P  P4  1  0.34490  0.79700  0.20822  1
