CIF file written using JARVIS-Tools package.
data_Li5Mn2CoO8
_symmetry_space_group_name_H-M  'Pm'
_cell_length_a       2.83276
_cell_length_b       5.79784
_cell_length_c       8.08137
_cell_angle_alpha    89.3513
_cell_angle_beta     90
_cell_angle_gamma    90

_symmetry_Int_Tables_number  6
_chemical_formula_structural  Li5Mn2CoO8
_chemical_formula_sum  Li5Mn2CoO8
_cell_volume  132.7192715375753
_cell_formula_units_Z  1
loop_
  _symmetry_equiv_pos_site_id
 _symmetry_equiv_pos_as_xyz
 1  'x, y, z'
loop_
 _atom_site_type_symbol
 _atom_site_label
 _atom_site_symmetry_multiplicity
 _atom_site_fract_x
 _atom_site_fract_y
 _atom_site_fract_z
 _atom_site_fract_occupancy
 Co  Co1  1  0.50000  0.74572  0.25493  1
 Li  Li1  1  0.00000  -0.01020  0.49429  1
 Li  Li2  1  0.50000  0.26861  0.27536  1
 Li  Li3  1  0.00000  0.49964  0.00500  1
 Li  Li4  1  0.50000  0.73958  0.72174  1
 Li  Li5  1  0.00000  0.51095  0.49558  1
 Mn  Mn1  1  0.00000  -0.00281  0.00461  1
 Mn  Mn2  1  0.50000  0.25434  0.73880  1
 O  O1  1  0.00000  0.52815  0.24770  1
 O  O2  1  0.50000  0.77096  0.00542  1
 O  O3  1  0.00000  0.01702  0.76341  1
 O  O4  1  0.50000  0.24577  0.52075  1
 O  O5  1  0.00000  0.47241  0.75540  1
 O  O6  1  0.50000  0.75101  0.48307  1
 O  O7  1  0.00000  0.98351  0.23815  1
 O  O8  1  0.50000  0.22533  0.99578  1
