CIF file written using JARVIS-Tools package.
data_Ba2Se
_symmetry_space_group_name_H-M  'P4/mmm'
_cell_length_a       4.66282
_cell_length_b       6.59461
_cell_length_c       6.49428
_cell_angle_alpha    90.011
_cell_angle_beta     90.0031
_cell_angle_gamma    134.996

_symmetry_Int_Tables_number  123
_chemical_formula_structural  Ba2Se
_chemical_formula_sum  Ba2Se
_cell_volume  141.21704217919606
_cell_formula_units_Z  1
loop_
  _symmetry_equiv_pos_site_id
 _symmetry_equiv_pos_as_xyz
 1  'x, y, z'
loop_
 _atom_site_type_symbol
 _atom_site_label
 _atom_site_symmetry_multiplicity
 _atom_site_fract_x
 _atom_site_fract_y
 _atom_site_fract_z
 _atom_site_fract_occupancy
 Ba  Ba1  1  0.01960  0.45810  0.96201  1
 Ba  Ba2  1  0.01966  0.95813  0.46212  1
 Se  Se1  1  0.01955  0.95807  -0.03787  1
