CIF file written using JARVIS-Tools package.
data_Li4MnFe3B4O12
_symmetry_space_group_name_H-M  'P1'
_cell_length_a       5.19014
_cell_length_b       5.9263
_cell_length_c       7.72762
_cell_angle_alpha    81.1185
_cell_angle_beta     91.5789
_cell_angle_gamma    92.3108

_symmetry_Int_Tables_number  1
_chemical_formula_structural  Li4MnFe3B4O12
_chemical_formula_sum  Li4MnFe3B4O2
_cell_volume  234.59328611299716
_cell_formula_units_Z  1
loop_
  _symmetry_equiv_pos_site_id
 _symmetry_equiv_pos_as_xyz
 1  'x, y, z'
loop_
 _atom_site_type_symbol
 _atom_site_label
 _atom_site_symmetry_multiplicity
 _atom_site_fract_x
 _atom_site_fract_y
 _atom_site_fract_z
 _atom_site_fract_occupancy
 B  B1  1  0.91410  0.24805  0.00344  1
 B  B2  1  0.39864  0.75748  0.49939  1
 B  B3  1  0.58884  0.25843  0.49983  1
 B  B4  1  0.09835  0.73879  -0.00236  1
 Fe  Fe1  1  0.60384  0.60052  0.17836  1
 Fe  Fe2  1  0.42246  0.42059  0.83013  1
 Fe  Fe3  1  0.89264  0.88404  0.31417  1
 Li  Li1  1  0.58751  0.89193  0.81084  1
 Li  Li2  1  0.41508  0.12234  0.19083  1
 Li  Li3  1  0.08325  0.37351  0.31017  1
 Li  Li4  1  0.91230  0.60771  0.68791  1
 Mn  Mn1  1  0.08439  0.08754  0.67292  1
 O  O1  1  0.98465  0.63844  0.15422  1
 O  O2  1  0.05228  0.13749  0.14382  1
 O  O3  1  0.36354  0.72689  0.98328  1
 O  O4  1  0.94612  0.83633  0.85998  1
 O  O5  1  0.03898  0.34261  0.84904  1
 O  O6  1  0.13402  0.77463  0.51256  1
 O  O7  1  0.54759  0.66148  0.64021  1
 O  O8  1  0.51652  0.85308  0.34327  1
 O  O9  1  0.47120  0.16595  0.65824  1
 O  O10  1  0.44225  0.35677  0.35843  1
 O  O11  1  0.85158  0.24392  0.48517  1
 O  O12  1  0.64988  0.27148  0.01614  1
