CIF file written using JARVIS-Tools package.
data_BaSe
_symmetry_space_group_name_H-M  'R3m'
_cell_length_a       9.62452
_cell_length_b       10.658
_cell_length_c       4.5865
_cell_angle_alpha    49.9233
_cell_angle_beta     61.6661
_cell_angle_gamma    25.5193

_symmetry_Int_Tables_number  160
_chemical_formula_structural  BaSe
_chemical_formula_sum  Ba2Se2
_cell_volume  146.79295729188553
_cell_formula_units_Z  2
loop_
  _symmetry_equiv_pos_site_id
 _symmetry_equiv_pos_as_xyz
 1  'x, y, z'
loop_
 _atom_site_type_symbol
 _atom_site_label
 _atom_site_symmetry_multiplicity
 _atom_site_fract_x
 _atom_site_fract_y
 _atom_site_fract_z
 _atom_site_fract_occupancy
 Ba  Ba1  1  -0.02527  0.07084  -0.20357  1
 Ba  Ba2  1  0.14334  0.40919  0.11982  1
 Se  Se1  1  0.55970  0.24172  0.45466  1
 Se  Se2  1  0.39174  -0.09562  0.12913  1
