CIF file written using JARVIS-Tools package.
data_Li7Mn2Co3O12
_symmetry_space_group_name_H-M  'Cm'
_cell_length_a       7.5191
_cell_length_b       7.5191
_cell_length_c       9.95996
_cell_angle_alpha    71.5019
_cell_angle_beta     71.5019
_cell_angle_gamma    21.7959

_symmetry_Int_Tables_number  8
_chemical_formula_structural  Li7Mn2Co3O12
_chemical_formula_sum  Li7Mn2Co3O2
_cell_volume  197.86699669445295
_cell_formula_units_Z  1
loop_
  _symmetry_equiv_pos_site_id
 _symmetry_equiv_pos_as_xyz
 1  'x, y, z'
loop_
 _atom_site_type_symbol
 _atom_site_label
 _atom_site_symmetry_multiplicity
 _atom_site_fract_x
 _atom_site_fract_y
 _atom_site_fract_z
 _atom_site_fract_occupancy
 Co  Co1  1  0.33377  0.33377  -0.00123  1
 Co  Co2  1  0.33607  0.33607  0.50102  1
 Co  Co3  1  0.66674  0.66674  0.00117  1
 Li  Li1  1  -0.00494  -0.00494  0.50398  1
 Li  Li2  1  0.49503  0.49503  0.72908  1
 Li  Li3  1  0.16239  0.16239  0.25550  1
 Li  Li4  1  0.17196  0.17196  0.74363  1
 Li  Li5  1  0.49936  0.49936  0.27778  1
 Li  Li6  1  0.83828  0.83828  0.73594  1
 Li  Li7  1  0.83346  0.83346  0.25601  1
 Mn  Mn1  1  0.00048  0.00048  0.00027  1
 Mn  Mn2  1  0.66308  0.66308  0.49656  1
 O  O1  1  0.40981  0.40981  0.62054  1
 O  O2  1  0.75590  0.75590  0.10465  1
 O  O3  1  0.09318  0.09318  0.61370  1
 O  O4  1  0.59244  0.59244  0.37939  1
 O  O5  1  0.91490  0.91490  0.89007  1
 O  O6  1  0.90741  0.90741  0.38718  1
 O  O7  1  0.57979  0.57979  0.88960  1
 O  O8  1  0.24446  0.24446  0.89560  1
 O  O9  1  0.75318  0.75318  0.60953  1
 O  O10  1  0.08581  0.08581  0.11080  1
 O  O11  1  0.24674  0.24674  0.38857  1
 O  O12  1  0.42070  0.42070  0.11067  1
