CIF file written using JARVIS-Tools package.
data_Fe5O7F3
_symmetry_space_group_name_H-M  'P1'
_cell_length_a       4.42309
_cell_length_b       4.48454
_cell_length_c       14.3797
_cell_angle_alpha    90.1966
_cell_angle_beta     89.9592
_cell_angle_gamma    87.0403

_symmetry_Int_Tables_number  1
_chemical_formula_structural  Fe5O7F3
_chemical_formula_sum  Fe0O4F6
_cell_volume  284.8474579637655
_cell_formula_units_Z  2
loop_
  _symmetry_equiv_pos_site_id
 _symmetry_equiv_pos_as_xyz
 1  'x, y, z'
loop_
 _atom_site_type_symbol
 _atom_site_label
 _atom_site_symmetry_multiplicity
 _atom_site_fract_x
 _atom_site_fract_y
 _atom_site_fract_z
 _atom_site_fract_occupancy
 F  F1  1  0.78307  0.79684  0.30644  1
 F  F2  1  0.71780  0.31203  0.79809  1
 F  F3  1  0.20019  0.18558  0.09179  1
 F  F4  1  0.21339  0.19555  0.70092  1
 F  F5  1  0.80719  0.82490  0.09496  1
 F  F6  1  0.78855  0.80618  0.50242  1
 Fe  Fe1  1  0.01036  0.00958  0.20702  1
 Fe  Fe2  1  0.01414  0.97059  0.80484  1
 Fe  Fe3  1  0.00246  0.00369  0.98533  1
 Fe  Fe4  1  0.01297  0.01461  0.40327  1
 Fe  Fe5  1  0.50629  0.50276  0.09796  1
 Fe  Fe6  1  0.52530  0.54547  0.69357  1
 Fe  Fe7  1  0.46939  0.47111  0.50129  1
 Fe  Fe8  1  0.49318  0.50634  0.90335  1
 Fe  Fe9  1  0.47419  0.47567  0.30267  1
 Fe  Fe10  1  -0.00178  0.00511  0.60204  1
 O  O1  1  0.28664  0.68571  0.40271  1
 O  O2  1  0.21428  0.19317  0.89647  1
 O  O3  1  0.19320  0.18627  0.50187  1
 O  O4  1  0.19716  0.18742  0.30598  1
 O  O5  1  0.29157  0.69719  -0.00192  1
 O  O6  1  0.30648  0.68184  0.79852  1
 O  O7  1  0.29728  0.68746  0.20096  1
 O  O8  1  0.70156  0.31203  0.59929  1
 O  O9  1  0.69757  0.30731  0.20142  1
 O  O10  1  0.79199  0.80508  0.89671  1
 O  O11  1  0.80824  0.82272  0.70068  1
 O  O12  1  0.71102  0.31029  -0.00109  1
 O  O13  1  0.29369  0.69799  0.59972  1
 O  O14  1  0.69263  0.29955  0.40269  1
