CIF file written using JARVIS-Tools package.
data_Li4Nb3V3Fe2O16
_symmetry_space_group_name_H-M  'Cm'
_cell_length_a       5.93349
_cell_length_b       5.9335
_cell_length_c       9.86826
_cell_angle_alpha    88.7842
_cell_angle_beta     88.7842
_cell_angle_gamma    59.7375

_symmetry_Int_Tables_number  8
_chemical_formula_structural  Li4Nb3V3Fe2O16
_chemical_formula_sum  Li4Nb3V3Fe2O6
_cell_volume  299.9906029321892
_cell_formula_units_Z  1
loop_
  _symmetry_equiv_pos_site_id
 _symmetry_equiv_pos_as_xyz
 1  'x, y, z'
loop_
 _atom_site_type_symbol
 _atom_site_label
 _atom_site_symmetry_multiplicity
 _atom_site_fract_x
 _atom_site_fract_y
 _atom_site_fract_z
 _atom_site_fract_occupancy
 Fe  Fe1  1  0.33829  0.33829  0.50814  1
 Fe  Fe2  1  0.66670  0.66670  0.99620  1
 Li  Li1  1  0.34332  0.34332  0.10081  1
 Li  Li2  1  0.98405  0.98405  0.00175  1
 Li  Li3  1  0.98256  0.98256  0.50959  1
 Li  Li4  1  0.66957  0.66957  0.60922  1
 Nb  Nb1  1  0.16956  0.16956  0.78394  1
 Nb  Nb2  1  0.83951  0.34669  0.28543  1
 Nb  Nb3  1  0.34669  0.83951  0.28543  1
 O  O1  1  0.15907  0.67779  0.39597  1
 O  O2  1  -0.00167  -0.00167  0.18185  1
 O  O3  1  -0.00346  -0.00346  0.68906  1
 O  O4  1  0.52336  0.52336  0.15637  1
 O  O5  1  0.48538  0.48538  0.66888  1
 O  O6  1  0.67779  0.15907  0.39597  1
 O  O7  1  0.32920  0.32920  0.90612  1
 O  O8  1  0.03295  0.48880  0.66252  1
 O  O9  1  0.83004  0.31873  0.89811  1
 O  O10  1  0.98137  0.52020  0.16332  1
 O  O11  1  0.52020  0.98137  0.16332  1
 O  O12  1  0.66776  0.66776  0.41192  1
 O  O13  1  0.48880  0.03295  0.66252  1
 O  O14  1  0.83588  0.83588  0.88931  1
 O  O15  1  0.16280  0.16280  0.40942  1
 O  O16  1  0.31873  0.83004  0.89811  1
 V  V1  1  0.64643  0.17852  0.78643  1
 V  V2  1  0.82690  0.82690  0.28604  1
 V  V3  1  0.17852  0.64643  0.78643  1
