CIF file written using JARVIS-Tools package.
data_CdPS4
_symmetry_space_group_name_H-M  'I222'
_cell_length_a       5.99207
_cell_length_b       5.99207
_cell_length_c       5.99207
_cell_angle_alpha    115.199
_cell_angle_beta     130.812
_cell_angle_gamma    85.4493

_symmetry_Int_Tables_number  23
_chemical_formula_structural  CdPS4
_chemical_formula_sum  CdPS4
_cell_volume  140.98469052190967
_cell_formula_units_Z  1
loop_
  _symmetry_equiv_pos_site_id
 _symmetry_equiv_pos_as_xyz
 1  'x, y, z'
loop_
 _atom_site_type_symbol
 _atom_site_label
 _atom_site_symmetry_multiplicity
 _atom_site_fract_x
 _atom_site_fract_y
 _atom_site_fract_z
 _atom_site_fract_occupancy
 Cd  Cd1  1  0.00000  0.50000  0.50000  1
 P  P1  1  0.00000  0.00000  0.00000  1
 S  S1  1  0.62804  0.67573  0.56863  1
 S  S2  1  0.37196  -0.05940  0.04769  1
 S  S3  1  0.89290  0.32427  -0.04769  1
 S  S4  1  0.10710  0.05940  0.43137  1
