CIF file written using JARVIS-Tools package.
data_BeTeBr
_symmetry_space_group_name_H-M  'Pm'
_cell_length_a       3.53454
_cell_length_b       8.00118
_cell_length_c       3.56708
_cell_angle_alpha    90
_cell_angle_beta     90
_cell_angle_gamma    64.0589

_symmetry_Int_Tables_number  6
_chemical_formula_structural  BeTeBr
_chemical_formula_sum  BeTeBr
_cell_volume  90.71457025607444
_cell_formula_units_Z  1
loop_
  _symmetry_equiv_pos_site_id
 _symmetry_equiv_pos_as_xyz
 1  'x, y, z'
loop_
 _atom_site_type_symbol
 _atom_site_label
 _atom_site_symmetry_multiplicity
 _atom_site_fract_x
 _atom_site_fract_y
 _atom_site_fract_z
 _atom_site_fract_occupancy
 Be  Be1  1  -0.08101  0.11800  0.00000  1
 Br  Br1  1  0.19173  -0.15661  0.00000  1
 Te  Te1  1  0.19074  0.34846  0.00000  1
