CIF file written using JARVIS-Tools package.
data_BiCO3
_symmetry_space_group_name_H-M  'C2/m'
_cell_length_a       5.0991
_cell_length_b       6.6963
_cell_length_c       8.81624
_cell_angle_alpha    115.303
_cell_angle_beta     89.9989
_cell_angle_gamma    90.0217

_symmetry_Int_Tables_number  12
_chemical_formula_structural  BiCO3
_chemical_formula_sum  Bi4C4O2
_cell_volume  272.14987858963553
_cell_formula_units_Z  4
loop_
  _symmetry_equiv_pos_site_id
 _symmetry_equiv_pos_as_xyz
 1  'x, y, z'
loop_
 _atom_site_type_symbol
 _atom_site_label
 _atom_site_symmetry_multiplicity
 _atom_site_fract_x
 _atom_site_fract_y
 _atom_site_fract_z
 _atom_site_fract_occupancy
 Bi  Bi1  1  0.74997  0.74215  0.16440  1
 Bi  Bi2  1  0.24997  0.74217  0.66441  1
 Bi  Bi3  1  0.75003  0.25783  0.33559  1
 Bi  Bi4  1  0.25003  0.25785  0.83560  1
 C  C1  1  0.75000  0.75303  0.83402  1
 C  C2  1  0.24999  0.75299  0.33401  1
 C  C3  1  0.75001  0.24701  0.66599  1
 C  C4  1  0.25000  0.24697  0.16598  1
 O  O1  1  0.52992  0.75176  0.90713  1
 O  O2  1  0.02992  0.24825  0.09288  1
 O  O3  1  0.75000  0.75155  0.68660  1
 O  O4  1  0.25000  0.75149  0.18658  1
 O  O5  1  0.97008  0.75175  0.90712  1
 O  O6  1  0.75000  0.24851  0.81342  1
 O  O7  1  0.97009  0.24827  0.59288  1
 O  O8  1  0.52993  0.24828  0.59288  1
 O  O9  1  0.47007  0.75172  0.40712  1
 O  O10  1  0.25000  0.24845  0.31340  1
 O  O11  1  0.02991  0.75173  0.40712  1
 O  O12  1  0.47008  0.24824  0.09287  1
