CIF file written using JARVIS-Tools package.
data_BaTlO
_symmetry_space_group_name_H-M  'Pm'
_cell_length_a       4.17822
_cell_length_b       7.61627
_cell_length_c       3.91478
_cell_angle_alpha    90
_cell_angle_beta     90
_cell_angle_gamma    57.7608

_symmetry_Int_Tables_number  6
_chemical_formula_structural  BaTlO
_chemical_formula_sum  BaTlO
_cell_volume  105.37157840260973
_cell_formula_units_Z  1
loop_
  _symmetry_equiv_pos_site_id
 _symmetry_equiv_pos_as_xyz
 1  'x, y, z'
loop_
 _atom_site_type_symbol
 _atom_site_label
 _atom_site_symmetry_multiplicity
 _atom_site_fract_x
 _atom_site_fract_y
 _atom_site_fract_z
 _atom_site_fract_occupancy
 Ba  Ba1  1  -0.00261  -0.10713  0.00000  1
 O  O1  1  0.31331  0.08196  0.00000  1
 Tl  Tl1  1  -0.03420  0.42583  0.00000  1
