CIF file written using JARVIS-Tools package.
data_Cr2B2Ir
_symmetry_space_group_name_H-M  'Pnnm'
_cell_length_a       2.91199
_cell_length_b       7.20699
_cell_length_c       9.30852
_cell_angle_alpha    90
_cell_angle_beta     90
_cell_angle_gamma    90

_symmetry_Int_Tables_number  58
_chemical_formula_structural  Cr2B2Ir
_chemical_formula_sum  Cr8B8Ir4
_cell_volume  195.35493088198427
_cell_formula_units_Z  4
loop_
  _symmetry_equiv_pos_site_id
 _symmetry_equiv_pos_as_xyz
 1  'x, y, z'
loop_
 _atom_site_type_symbol
 _atom_site_label
 _atom_site_symmetry_multiplicity
 _atom_site_fract_x
 _atom_site_fract_y
 _atom_site_fract_z
 _atom_site_fract_occupancy
 B  B1  1  0.00000  0.37345  0.77308  1
 B  B2  1  0.00000  0.61619  0.03717  1
 B  B3  1  0.50000  0.11619  0.46283  1
 B  B4  1  0.00000  0.38381  0.96283  1
 B  B5  1  0.50000  0.88381  0.53717  1
 B  B6  1  0.50000  0.12655  0.27308  1
 B  B7  1  0.50000  0.87345  0.72692  1
 B  B8  1  0.00000  0.62655  0.22692  1
 Cr  Cr1  1  0.50000  0.81038  0.13938  1
 Cr  Cr2  1  0.00000  0.93728  0.35938  1
 Cr  Cr3  1  0.50000  0.43728  0.14062  1
 Cr  Cr4  1  0.50000  0.56272  0.85938  1
 Cr  Cr5  1  0.00000  0.31038  0.36062  1
 Cr  Cr6  1  0.00000  0.68962  0.63938  1
 Cr  Cr7  1  0.50000  0.18962  0.86062  1
 Cr  Cr8  1  0.00000  0.06272  0.64062  1
 Ir  Ir1  1  0.50000  0.37430  0.60481  1
 Ir  Ir2  1  0.00000  0.87430  0.89519  1
 Ir  Ir3  1  0.50000  0.62570  0.39519  1
 Ir  Ir4  1  0.00000  0.12570  0.10481  1
