CIF file written using JARVIS-Tools package.
data_Y3AlCoS7
_symmetry_space_group_name_H-M  'P6_3'
_cell_length_a       9.48368
_cell_length_b       9.48368
_cell_length_c       6.15269
_cell_angle_alpha    90
_cell_angle_beta     90
_cell_angle_gamma    120

_symmetry_Int_Tables_number  173
_chemical_formula_structural  Y3AlCoS7
_chemical_formula_sum  Y6Al2Co2S4
_cell_volume  479.2361447239697
_cell_formula_units_Z  2
loop_
  _symmetry_equiv_pos_site_id
 _symmetry_equiv_pos_as_xyz
 1  'x, y, z'
loop_
 _atom_site_type_symbol
 _atom_site_label
 _atom_site_symmetry_multiplicity
 _atom_site_fract_x
 _atom_site_fract_y
 _atom_site_fract_z
 _atom_site_fract_occupancy
 Al  Al1  1  0.66667  0.33333  0.65219  1
 Al  Al2  1  0.33333  0.66667  0.15219  1
 Co  Co1  1  0.00000  0.00000  0.06390  1
 Co  Co2  1  0.00000  0.00000  0.56390  1
 S  S1  1  0.47764  0.91360  -0.00013  1
 S  S2  1  0.87271  0.09868  0.81912  1
 S  S3  1  0.66667  0.33333  0.01461  1
 S  S4  1  0.90132  0.77403  0.81912  1
 S  S5  1  0.12729  0.90132  0.31912  1
 S  S6  1  0.77403  0.87271  0.31912  1
 S  S7  1  0.22597  0.12729  0.81912  1
 S  S8  1  0.91360  0.43597  0.49987  1
 S  S9  1  0.52236  0.08640  0.49987  1
 S  S10  1  0.33333  0.66667  0.51461  1
 S  S11  1  0.08640  0.56403  -0.00013  1
 S  S12  1  0.09868  0.22597  0.31912  1
 S  S13  1  0.43597  0.52236  -0.00013  1
 S  S14  1  0.56403  0.47764  0.49987  1
 Y  Y1  1  0.15820  0.37492  0.72514  1
 Y  Y2  1  0.62508  0.78328  0.72514  1
 Y  Y3  1  0.21672  0.84180  0.72514  1
 Y  Y4  1  0.84180  0.62508  0.22514  1
 Y  Y5  1  0.37492  0.21672  0.22514  1
 Y  Y6  1  0.78328  0.15820  0.22514  1
