CIF file written using JARVIS-Tools package.
data_AgOF2
_symmetry_space_group_name_H-M  'Immm'
_cell_length_a       4.31237
_cell_length_b       4.31237
_cell_length_c       4.31237
_cell_angle_alpha    134.398
_cell_angle_beta     76.7422
_cell_angle_gamma    121.984

_symmetry_Int_Tables_number  71
_chemical_formula_structural  AgOF2
_chemical_formula_sum  AgOF2
_cell_volume  47.26183183155637
_cell_formula_units_Z  1
loop_
  _symmetry_equiv_pos_site_id
 _symmetry_equiv_pos_as_xyz
 1  'x, y, z'
loop_
 _atom_site_type_symbol
 _atom_site_label
 _atom_site_symmetry_multiplicity
 _atom_site_fract_x
 _atom_site_fract_y
 _atom_site_fract_z
 _atom_site_fract_occupancy
 Ag  Ag1  1  0.50167  0.00167  0.50000  1
 F  F1  1  0.27565  0.50161  0.77403  1
 F  F2  1  0.72758  0.50161  0.22597  1
 O  O1  1  0.00167  0.50167  0.50000  1
