CIF file written using JARVIS-Tools package.
data_Sr3InNiO6
_symmetry_space_group_name_H-M  'C2/c'
_cell_length_a       6.64027
_cell_length_b       6.85818
_cell_length_c       6.64026
_cell_angle_alpha    91.4305
_cell_angle_beta     92.9211
_cell_angle_gamma    91.4306

_symmetry_Int_Tables_number  15
_chemical_formula_structural  Sr3InNiO6
_chemical_formula_sum  Sr6In2Ni2O2
_cell_volume  301.80770235544907
_cell_formula_units_Z  2
loop_
  _symmetry_equiv_pos_site_id
 _symmetry_equiv_pos_as_xyz
 1  'x, y, z'
loop_
 _atom_site_type_symbol
 _atom_site_label
 _atom_site_symmetry_multiplicity
 _atom_site_fract_x
 _atom_site_fract_y
 _atom_site_fract_z
 _atom_site_fract_occupancy
 In  In1  1  0.25450  0.25001  0.24549  1
 In  In2  1  0.74550  0.74999  0.75451  1
 Ni  Ni1  1  0.50000  0.50000  0.50000  1
 Ni  Ni2  1  1.00000  -0.00000  1.00000  1
 O  O1  1  0.96453  0.08573  0.28223  1
 O  O2  1  0.09675  0.29609  0.95558  1
 O  O3  1  0.21777  0.41428  0.53546  1
 O  O4  1  0.41655  0.54518  0.22075  1
 O  O5  1  0.03547  0.91427  0.71777  1
 O  O6  1  0.54440  0.20390  0.40325  1
 O  O7  1  0.72074  0.04518  0.91655  1
 O  O8  1  0.45560  0.79610  0.59675  1
 O  O9  1  0.27926  0.95482  0.08345  1
 O  O10  1  0.58345  0.45482  0.77925  1
 O  O11  1  0.90325  0.70391  0.04442  1
 O  O12  1  0.78223  0.58572  0.46454  1
 Sr  Sr1  1  0.37955  0.12202  0.74793  1
 Sr  Sr2  1  0.75207  0.37798  0.12044  1
 Sr  Sr3  1  0.12016  0.75000  0.37985  1
 Sr  Sr4  1  0.24793  0.62202  0.87956  1
 Sr  Sr5  1  0.87983  0.25000  0.62015  1
 Sr  Sr6  1  0.62045  0.87798  0.25206  1
