CIF file written using JARVIS-Tools package.
data_SnHCl3
_symmetry_space_group_name_H-M  'R3m'
_cell_length_a       4.84218
_cell_length_b       4.84218
_cell_length_c       4.84218
_cell_angle_alpha    84.1806
_cell_angle_beta     84.1806
_cell_angle_gamma    84.1806

_symmetry_Int_Tables_number  160
_chemical_formula_structural  SnHCl3
_chemical_formula_sum  SnHCl3
_cell_volume  111.88879782256417
_cell_formula_units_Z  1
loop_
  _symmetry_equiv_pos_site_id
 _symmetry_equiv_pos_as_xyz
 1  'x, y, z'
loop_
 _atom_site_type_symbol
 _atom_site_label
 _atom_site_symmetry_multiplicity
 _atom_site_fract_x
 _atom_site_fract_y
 _atom_site_fract_z
 _atom_site_fract_occupancy
 Cl  Cl1  1  0.83921  0.83921  0.31966  1
 Cl  Cl2  1  0.83921  0.31965  0.83921  1
 Cl  Cl3  1  0.31965  0.83921  0.83921  1
 H  H1  1  0.97474  0.97474  0.97475  1
 Sn  Sn1  1  0.46694  0.46694  0.46694  1
