CIF file written using JARVIS-Tools package.
data_BiO2
_symmetry_space_group_name_H-M  'Pm'
_cell_length_a       5.42445
_cell_length_b       3.27006
_cell_length_c       4.07834
_cell_angle_alpha    90
_cell_angle_beta     92.359
_cell_angle_gamma    90

_symmetry_Int_Tables_number  6
_chemical_formula_structural  BiO2
_chemical_formula_sum  BiO2
_cell_volume  72.28147161413494
_cell_formula_units_Z  1
loop_
  _symmetry_equiv_pos_site_id
 _symmetry_equiv_pos_as_xyz
 1  'x, y, z'
loop_
 _atom_site_type_symbol
 _atom_site_label
 _atom_site_symmetry_multiplicity
 _atom_site_fract_x
 _atom_site_fract_y
 _atom_site_fract_z
 _atom_site_fract_occupancy
 Bi  Bi1  1  0.57971  0.00000  -0.03555  1
 O  O1  1  -0.17263  0.00000  -0.48811  1
 O  O2  1  -0.00708  0.00000  -0.07633  1
