CIF file written using JARVIS-Tools package.
data_Ge2Br
_symmetry_space_group_name_H-M  'Pmm2'
_cell_length_a       6.13973
_cell_length_b       3.21198
_cell_length_c       4.30806
_cell_angle_alpha    90
_cell_angle_beta     90.0266
_cell_angle_gamma    90

_symmetry_Int_Tables_number  25
_chemical_formula_structural  Ge2Br
_chemical_formula_sum  Ge2Br
_cell_volume  84.95796668007891
_cell_formula_units_Z  1
loop_
  _symmetry_equiv_pos_site_id
 _symmetry_equiv_pos_as_xyz
 1  'x, y, z'
loop_
 _atom_site_type_symbol
 _atom_site_label
 _atom_site_symmetry_multiplicity
 _atom_site_fract_x
 _atom_site_fract_y
 _atom_site_fract_z
 _atom_site_fract_occupancy
 Br  Br1  1  0.46020  0.00000  -0.03267  1
 Ge  Ge1  1  -0.14119  0.00000  -0.03371  1
 Ge  Ge2  1  0.08100  0.00000  0.46638  1
