CIF file written using JARVIS-Tools package.
data_La3IrBr3
_symmetry_space_group_name_H-M  'I4_132'
_cell_length_a       10.5407
_cell_length_b       10.5407
_cell_length_c       10.5407
_cell_angle_alpha    109.471
_cell_angle_beta     109.471
_cell_angle_gamma    109.471

_symmetry_Int_Tables_number  214
_chemical_formula_structural  La3IrBr3
_chemical_formula_sum  La2Ir4Br2
_cell_volume  901.5446244055128
_cell_formula_units_Z  4
loop_
  _symmetry_equiv_pos_site_id
 _symmetry_equiv_pos_as_xyz
 1  'x, y, z'
loop_
 _atom_site_type_symbol
 _atom_site_label
 _atom_site_symmetry_multiplicity
 _atom_site_fract_x
 _atom_site_fract_y
 _atom_site_fract_z
 _atom_site_fract_occupancy
 Br  Br1  1  0.99074  0.98148  0.74074  1
 Br  Br2  1  0.75926  0.51852  0.50926  1
 Br  Br3  1  0.50926  0.25000  0.99074  1
 Br  Br4  1  0.50926  0.75926  0.51852  1
 Br  Br5  1  0.75926  0.74074  0.25000  1
 Br  Br6  1  0.74074  0.99074  0.98148  1
 Br  Br7  1  0.99074  0.50926  0.25000  1
 Br  Br8  1  0.98148  0.74074  0.99074  1
 Br  Br9  1  0.25000  0.75926  0.74074  1
 Br  Br10  1  0.51852  0.50926  0.75926  1
 Br  Br11  1  0.25000  0.99074  0.50926  1
 Br  Br12  1  0.74074  0.25000  0.75926  1
 Ir  Ir1  1  0.50000  0.00000  0.25000  1
 Ir  Ir2  1  0.25000  0.50000  -0.00000  1
 Ir  Ir3  1  -0.00000  0.25000  0.50000  1
 Ir  Ir4  1  0.25000  0.25000  0.25000  1
 La  La1  1  0.02766  0.26383  0.01383  1
 La  La2  1  0.47234  0.48617  0.23617  1
 La  La3  1  0.75000  0.01383  0.48617  1
 La  La4  1  0.75000  0.23617  0.26383  1
 La  La5  1  0.26383  0.01383  0.02766  1
 La  La6  1  0.48617  0.23617  0.47234  1
 La  La7  1  0.01383  0.48617  0.75000  1
 La  La8  1  0.23617  0.26383  0.75000  1
 La  La9  1  0.01383  0.02766  0.26383  1
 La  La10  1  0.23617  0.47234  0.48617  1
 La  La11  1  0.48617  0.75000  0.01383  1
 La  La12  1  0.26383  0.75000  0.23617  1
