CIF file written using JARVIS-Tools package.
data_CdInSe
_symmetry_space_group_name_H-M  'Pm'
_cell_length_a       8.7492
_cell_length_b       4.0822
_cell_length_c       3.12896
_cell_angle_alpha    90
_cell_angle_beta     90
_cell_angle_gamma    45.9589

_symmetry_Int_Tables_number  6
_chemical_formula_structural  CdInSe
_chemical_formula_sum  CdInSe
_cell_volume  80.33337373752227
_cell_formula_units_Z  1
loop_
  _symmetry_equiv_pos_site_id
 _symmetry_equiv_pos_as_xyz
 1  'x, y, z'
loop_
 _atom_site_type_symbol
 _atom_site_label
 _atom_site_symmetry_multiplicity
 _atom_site_fract_x
 _atom_site_fract_y
 _atom_site_fract_z
 _atom_site_fract_occupancy
 Cd  Cd1  1  0.44968  0.12955  0.00000  1
 In  In1  1  -0.18521  0.07982  0.00000  1
 Se  Se1  1  0.13813  0.09634  0.00000  1
