CIF file written using JARVIS-Tools package.
data_Co5BiO12
_symmetry_space_group_name_H-M  'C2/m'
_cell_length_a       5.08217
_cell_length_b       5.08217
_cell_length_c       8.65424
_cell_angle_alpha    95.5595
_cell_angle_beta     95.5595
_cell_angle_gamma    120.008

_symmetry_Int_Tables_number  12
_chemical_formula_structural  Co5BiO12
_chemical_formula_sum  Co5BiO2
_cell_volume  189.8939689032793
_cell_formula_units_Z  1
loop_
  _symmetry_equiv_pos_site_id
 _symmetry_equiv_pos_as_xyz
 1  'x, y, z'
loop_
 _atom_site_type_symbol
 _atom_site_label
 _atom_site_symmetry_multiplicity
 _atom_site_fract_x
 _atom_site_fract_y
 _atom_site_fract_z
 _atom_site_fract_occupancy
 Bi  Bi1  1  0.00000  0.00000  0.00000  1
 Co  Co1  1  0.16654  0.83346  0.50000  1
 Co  Co2  1  0.66667  0.33333  -0.00000  1
 Co  Co3  1  0.33333  0.66667  -0.00000  1
 Co  Co4  1  0.83346  0.16654  0.50000  1
 Co  Co5  1  0.50000  0.50000  0.50000  1
 O  O1  1  0.41729  0.03946  0.11965  1
 O  O2  1  -0.03946  0.58271  0.88035  1
 O  O3  1  0.33838  0.33838  0.88037  1
 O  O4  1  0.79985  0.46714  0.39851  1
 O  O5  1  0.46714  0.79985  0.39851  1
 O  O6  1  0.03946  0.41729  0.11965  1
 O  O7  1  0.53286  0.20015  0.60149  1
 O  O8  1  0.20015  0.53286  0.60149  1
 O  O9  1  0.66162  0.66162  0.11963  1
 O  O10  1  0.58271  -0.03946  0.88035  1
 O  O11  1  0.86918  0.86918  0.60654  1
 O  O12  1  0.13082  0.13082  0.39346  1
