CIF file written using JARVIS-Tools package.
data_Li3Fe2Si2O8
_symmetry_space_group_name_H-M  'P1'
_cell_length_a       4.96344
_cell_length_b       5.40333
_cell_length_c       6.17655
_cell_angle_alpha    89.1455
_cell_angle_beta     89.757
_cell_angle_gamma    89.3308

_symmetry_Int_Tables_number  1
_chemical_formula_structural  Li3Fe2Si2O8
_chemical_formula_sum  Li3Fe2Si2O8
_cell_volume  165.6184633552529
_cell_formula_units_Z  1
loop_
  _symmetry_equiv_pos_site_id
 _symmetry_equiv_pos_as_xyz
 1  'x, y, z'
loop_
 _atom_site_type_symbol
 _atom_site_label
 _atom_site_symmetry_multiplicity
 _atom_site_fract_x
 _atom_site_fract_y
 _atom_site_fract_z
 _atom_site_fract_occupancy
 Fe  Fe1  1  0.00872  0.82767  0.00778  1
 Fe  Fe2  1  0.49941  0.17466  0.49035  1
 Li  Li1  1  0.51120  0.66301  0.25226  1
 Li  Li2  1  0.50700  0.66803  0.75125  1
 Li  Li3  1  -0.00085  0.33193  0.74881  1
 O  O1  1  0.61460  0.87768  0.99946  1
 O  O2  1  0.16379  0.14881  0.98084  1
 O  O3  1  0.57974  0.31651  0.21286  1
 O  O4  1  0.12140  0.70523  0.28518  1
 O  O5  1  0.11678  0.11971  0.52005  1
 O  O6  1  0.67026  0.83911  0.50131  1
 O  O7  1  0.10293  0.67773  0.72566  1
 O  O8  1  0.60203  0.31539  0.77419  1
 Si  Si1  1  0.49228  0.16743  0.99536  1
 Si  Si2  1  0.00477  0.83616  0.50510  1
