CIF file written using JARVIS-Tools package.
data_Fe2H4O2F5
_symmetry_space_group_name_H-M  'Imma'
_cell_length_a       7.39313
_cell_length_b       7.39314
_cell_length_c       7.39314
_cell_angle_alpha    128.398
_cell_angle_beta     119.284
_cell_angle_gamma    83.67

_symmetry_Int_Tables_number  74
_chemical_formula_structural  Fe2H4O2F5
_chemical_formula_sum  Fe4H8O4F0
_cell_volume  264.9209669992702
_cell_formula_units_Z  2
loop_
  _symmetry_equiv_pos_site_id
 _symmetry_equiv_pos_as_xyz
 1  'x, y, z'
loop_
 _atom_site_type_symbol
 _atom_site_label
 _atom_site_symmetry_multiplicity
 _atom_site_fract_x
 _atom_site_fract_y
 _atom_site_fract_z
 _atom_site_fract_occupancy
 F  F1  1  0.41882  0.65882  0.83721  1
 F  F2  1  0.08118  0.91839  0.24000  1
 F  F3  1  0.25000  0.90429  0.65429  1
 F  F4  1  0.75000  0.09571  0.34571  1
 F  F5  1  0.91882  0.08161  0.76000  1
 F  F6  1  0.67839  0.91839  0.83721  1
 F  F7  1  0.82161  0.65882  0.24000  1
 F  F8  1  0.58118  0.34118  0.16279  1
 F  F9  1  0.17839  0.34118  0.76000  1
 F  F10  1  0.32161  0.08161  0.16279  1
 Fe  Fe1  1  0.50000  0.50000  -0.00000  1
 Fe  Fe2  1  -0.00000  -0.00000  0.50000  1
 Fe  Fe3  1  0.50000  0.00000  -0.00000  1
 Fe  Fe4  1  0.00000  0.00000  0.00000  1
 H  H1  1  0.47977  0.20501  0.51228  1
 H  H2  1  0.02023  0.53251  0.72524  1
 H  H3  1  0.19273  0.46749  0.48772  1
 H  H4  1  0.80727  0.53251  0.51228  1
 H  H5  1  0.97977  0.46749  0.27476  1
 H  H6  1  0.69273  0.20501  0.72524  1
 H  H7  1  0.52023  0.79499  0.48772  1
 H  H8  1  0.30727  0.79499  0.27476  1
 O  O1  1  0.94113  0.63778  0.69666  1
 O  O2  1  0.55887  0.25553  0.69666  1
 O  O3  1  0.05887  0.36222  0.30334  1
 O  O4  1  0.44113  0.74447  0.30334  1
