CIF file written using JARVIS-Tools package.
data_SnBi4Te7
_symmetry_space_group_name_H-M  'P-3m1'
_cell_length_a       4.46437
_cell_length_b       4.46437
_cell_length_c       24.4586
_cell_angle_alpha    90
_cell_angle_beta     90
_cell_angle_gamma    120

_symmetry_Int_Tables_number  164
_chemical_formula_structural  SnBi4Te7
_chemical_formula_sum  SnBi4Te7
_cell_volume  422.1656857733617
_cell_formula_units_Z  1
loop_
  _symmetry_equiv_pos_site_id
 _symmetry_equiv_pos_as_xyz
 1  'x, y, z'
loop_
 _atom_site_type_symbol
 _atom_site_label
 _atom_site_symmetry_multiplicity
 _atom_site_fract_x
 _atom_site_fract_y
 _atom_site_fract_z
 _atom_site_fract_occupancy
 Bi  Bi1  1  0.66667  0.33333  0.16131  1
 Bi  Bi2  1  0.33333  0.66667  0.83869  1
 Bi  Bi3  1  0.66667  0.33333  0.41635  1
 Bi  Bi4  1  0.33333  0.66667  0.58365  1
 Sn  Sn1  1  0.00000  0.00000  0.00000  1
 Te  Te1  1  0.00000  0.00000  0.50000  1
 Te  Te2  1  0.66667  0.33333  0.92309  1
 Te  Te3  1  0.33333  0.66667  0.07691  1
 Te  Te4  1  0.00000  0.00000  0.76836  1
 Te  Te5  1  0.00000  0.00000  0.23164  1
 Te  Te6  1  0.66667  0.33333  0.65433  1
 Te  Te7  1  0.33333  0.66667  0.34567  1
