CIF file written using JARVIS-Tools package.
data_LiV2OF5
_symmetry_space_group_name_H-M  'P1'
_cell_length_a       5.10221
_cell_length_b       5.49554
_cell_length_c       11.2947
_cell_angle_alpha    97.9726
_cell_angle_beta     103.242
_cell_angle_gamma    90.0571

_symmetry_Int_Tables_number  1
_chemical_formula_structural  LiV2OF5
_chemical_formula_sum  Li3V6O3F5
_cell_volume  305.1200716332928
_cell_formula_units_Z  3
loop_
  _symmetry_equiv_pos_site_id
 _symmetry_equiv_pos_as_xyz
 1  'x, y, z'
loop_
 _atom_site_type_symbol
 _atom_site_label
 _atom_site_symmetry_multiplicity
 _atom_site_fract_x
 _atom_site_fract_y
 _atom_site_fract_z
 _atom_site_fract_occupancy
 F  F1  1  0.55278  0.04812  0.71438  1
 F  F2  1  0.32138  0.46664  0.28964  1
 F  F3  1  0.81185  0.31010  0.95977  1
 F  F4  1  0.46903  0.96832  0.29589  1
 F  F5  1  0.32342  0.21552  0.04633  1
 F  F6  1  0.63481  0.71435  0.49448  1
 F  F7  1  0.03974  0.94790  0.83281  1
 F  F8  1  0.18690  0.69071  0.04711  1
 F  F9  1  0.97336  0.15557  0.62344  1
 F  F10  1  0.12666  0.63349  0.62201  1
 F  F11  1  0.96955  0.11162  0.17333  1
 F  F12  1  0.65806  0.80050  0.95450  1
 F  F13  1  0.86525  0.36708  0.37561  1
 F  F14  1  0.69759  0.52618  0.71154  1
 F  F15  1  0.00666  0.86654  0.37368  1
 Li  Li1  1  0.05220  0.47599  0.14272  1
 Li  Li2  1  0.93207  0.32245  0.81298  1
 Li  Li3  1  0.73742  0.35260  0.51794  1
 O  O1  1  0.35982  0.25299  0.50721  1
 O  O2  1  0.30408  0.42060  0.83246  1
 O  O3  1  0.68640  0.58401  0.15930  1
 V  V1  1  0.49216  0.50388  0.99464  1
 V  V2  1  0.83411  0.83753  0.66378  1
 V  V3  1  0.67148  0.66578  0.31524  1
 V  V4  1  0.18836  0.16784  0.35051  1
 V  V5  1  0.33777  0.34220  0.67095  1
 V  V6  1  -0.00311  0.99376  0.00365  1
