CIF file written using JARVIS-Tools package.
data_Li3FePCO7
_symmetry_space_group_name_H-M  'Pm'
_cell_length_a       6.13816
_cell_length_b       5.01165
_cell_length_c       8.89919
_cell_angle_alpha    80.9073
_cell_angle_beta     90
_cell_angle_gamma    90

_symmetry_Int_Tables_number  6
_chemical_formula_structural  Li3FePCO7
_chemical_formula_sum  Li6Fe2P2C2O4
_cell_volume  270.3196442654709
_cell_formula_units_Z  2
loop_
  _symmetry_equiv_pos_site_id
 _symmetry_equiv_pos_as_xyz
 1  'x, y, z'
loop_
 _atom_site_type_symbol
 _atom_site_label
 _atom_site_symmetry_multiplicity
 _atom_site_fract_x
 _atom_site_fract_y
 _atom_site_fract_z
 _atom_site_fract_occupancy
 C  C1  1  0.00000  0.22373  0.01072  1
 C  C2  1  0.50000  0.34950  0.06167  1
 Fe  Fe1  1  0.50000  0.55115  0.32651  1
 Fe  Fe2  1  0.00000  0.95855  0.64550  1
 Li  Li1  1  0.76709  0.07359  0.30967  1
 Li  Li2  1  0.23291  0.07359  0.30967  1
 Li  Li3  1  0.72513  0.28915  0.76300  1
 Li  Li4  1  0.27487  0.28915  0.76300  1
 Li  Li5  1  0.77121  0.77079  -0.04788  1
 Li  Li6  1  0.22879  0.77079  -0.04788  1
 O  O1  1  0.79848  0.44098  0.36101  1
 O  O2  1  0.20152  0.44098  0.36101  1
 O  O3  1  0.00000  0.06928  0.90175  1
 O  O4  1  0.50000  0.61379  0.06557  1
 O  O5  1  0.50000  0.19423  0.19202  1
 O  O6  1  0.00000  0.10440  0.14826  1
 O  O7  1  0.00000  0.83730  0.44086  1
 O  O8  1  0.50000  0.25564  0.93636  1
 O  O9  1  0.00000  0.38032  0.61351  1
 O  O10  1  0.69925  0.88499  0.71321  1
 O  O11  1  0.30075  0.88499  0.71321  1
 O  O12  1  0.50000  0.89881  0.45360  1
 O  O13  1  0.50000  0.47623  0.63999  1
 O  O14  1  0.00000  0.48381  0.96967  1
 P  P1  1  0.00000  0.52546  0.44467  1
 P  P2  1  0.50000  0.78408  0.62590  1
