CIF file written using JARVIS-Tools package.
data_Ti4Pb2O9F2
_symmetry_space_group_name_H-M  'C2/m'
_cell_length_a       7.67509
_cell_length_b       7.6751
_cell_length_c       10.3307
_cell_angle_alpha    48.4781
_cell_angle_beta     48.4781
_cell_angle_gamma    28.9862

_symmetry_Int_Tables_number  12
_chemical_formula_structural  Ti4Pb2O9F2
_chemical_formula_sum  Ti4Pb2O9F2
_cell_volume  214.93339655559305
_cell_formula_units_Z  1
loop_
  _symmetry_equiv_pos_site_id
 _symmetry_equiv_pos_as_xyz
 1  'x, y, z'
loop_
 _atom_site_type_symbol
 _atom_site_label
 _atom_site_symmetry_multiplicity
 _atom_site_fract_x
 _atom_site_fract_y
 _atom_site_fract_z
 _atom_site_fract_occupancy
 F  F1  1  0.28601  0.28601  0.06344  1
 F  F2  1  0.71399  0.71399  0.93656  1
 O  O1  1  0.50000  0.50000  -0.00000  1
 O  O2  1  0.19741  0.19741  0.75915  1
 O  O3  1  0.80259  0.80259  0.24085  1
 O  O4  1  0.14750  0.14750  0.43039  1
 O  O5  1  0.85250  0.85250  0.56961  1
 O  O6  1  0.43804  0.43804  0.66408  1
 O  O7  1  0.56196  0.56196  0.33592  1
 O  O8  1  0.37943  0.37943  0.35319  1
 O  O9  1  0.62057  0.62057  0.64681  1
 Pb  Pb1  1  0.91748  0.91748  0.84091  1
 Pb  Pb2  1  0.08252  0.08252  0.15909  1
 Ti  Ti1  1  0.37900  0.37900  0.54678  1
 Ti  Ti2  1  0.62100  0.62100  0.45322  1
 Ti  Ti3  1  0.33923  0.33923  0.22587  1
 Ti  Ti4  1  0.66077  0.66077  0.77413  1
