CIF file written using JARVIS-Tools package.
data_GaAsO4
_symmetry_space_group_name_H-M  'C222_1'
_cell_length_a       4.92127
_cell_length_b       4.92128
_cell_length_c       7.13624
_cell_angle_alpha    90
_cell_angle_beta     90
_cell_angle_gamma    90.5584

_symmetry_Int_Tables_number  20
_chemical_formula_structural  GaAsO4
_chemical_formula_sum  Ga2As2O8
_cell_volume  172.8239022535487
_cell_formula_units_Z  2
loop_
  _symmetry_equiv_pos_site_id
 _symmetry_equiv_pos_as_xyz
 1  'x, y, z'
loop_
 _atom_site_type_symbol
 _atom_site_label
 _atom_site_symmetry_multiplicity
 _atom_site_fract_x
 _atom_site_fract_y
 _atom_site_fract_z
 _atom_site_fract_occupancy
 As  As1  1  0.66080  0.33920  0.25000  1
 As  As2  1  0.33920  0.66080  0.75000  1
 Ga  Ga1  1  0.83467  0.83467  0.50000  1
 Ga  Ga2  1  0.16533  0.16533  0.00000  1
 O  O1  1  0.77845  0.20228  0.45620  1
 O  O2  1  0.79772  0.22155  0.04380  1
 O  O3  1  0.22155  0.79772  0.95620  1
 O  O4  1  0.20228  0.77845  0.54380  1
 O  O5  1  0.31801  0.27795  0.22561  1
 O  O6  1  0.72205  0.68199  0.27439  1
 O  O7  1  0.68199  0.72205  0.72561  1
 O  O8  1  0.27795  0.31801  0.77439  1
