CIF file written using JARVIS-Tools package.
data_AlC3
_symmetry_space_group_name_H-M  'R3m'
_cell_length_a       3.27733
_cell_length_b       5.61289
_cell_length_c       3.27885
_cell_angle_alpha    106.957
_cell_angle_beta     119.941
_cell_angle_gamma    90.0326

_symmetry_Int_Tables_number  160
_chemical_formula_structural  AlC3
_chemical_formula_sum  AlC3
_cell_volume  49.21037575548531
_cell_formula_units_Z  1
loop_
  _symmetry_equiv_pos_site_id
 _symmetry_equiv_pos_as_xyz
 1  'x, y, z'
loop_
 _atom_site_type_symbol
 _atom_site_label
 _atom_site_symmetry_multiplicity
 _atom_site_fract_x
 _atom_site_fract_y
 _atom_site_fract_z
 _atom_site_fract_occupancy
 Al  Al1  1  0.85792  0.55608  0.13040  1
 C  C1  1  0.73693  0.19266  0.88833  1
 C  C2  1  0.65729  0.95412  0.72918  1
 C  C3  1  0.57180  0.69786  0.55846  1
