CIF file written using JARVIS-Tools package.
data_MnV4Cu3O12
_symmetry_space_group_name_H-M  'Im-3'
_cell_length_a       6.30192
_cell_length_b       6.30193
_cell_length_c       6.30193
_cell_angle_alpha    109.471
_cell_angle_beta     109.471
_cell_angle_gamma    109.471

_symmetry_Int_Tables_number  204
_chemical_formula_structural  MnV4Cu3O12
_chemical_formula_sum  MnV4Cu3O2
_cell_volume  192.66283835362944
_cell_formula_units_Z  1
loop_
  _symmetry_equiv_pos_site_id
 _symmetry_equiv_pos_as_xyz
 1  'x, y, z'
loop_
 _atom_site_type_symbol
 _atom_site_label
 _atom_site_symmetry_multiplicity
 _atom_site_fract_x
 _atom_site_fract_y
 _atom_site_fract_z
 _atom_site_fract_occupancy
 Cu  Cu1  1  0.50000  0.00000  0.50000  1
 Cu  Cu2  1  0.00000  0.50000  0.50000  1
 Cu  Cu3  1  0.50000  0.50000  0.00000  1
 Mn  Mn1  1  0.00000  0.00000  0.00000  1
 O  O1  1  0.70167  0.81721  0.51888  1
 O  O2  1  0.11555  0.29833  0.81721  1
 O  O3  1  0.29833  0.81721  0.11555  1
 O  O4  1  0.29833  0.18279  0.48112  1
 O  O5  1  0.70167  0.18279  0.88445  1
 O  O6  1  0.18279  0.88445  0.70167  1
 O  O7  1  0.81721  0.11555  0.29833  1
 O  O8  1  0.51888  0.70167  0.81721  1
 O  O9  1  0.81721  0.51888  0.70167  1
 O  O10  1  0.88445  0.70167  0.18279  1
 O  O11  1  0.18279  0.48112  0.29833  1
 O  O12  1  0.48112  0.29833  0.18279  1
 V  V1  1  0.50000  0.50000  0.50000  1
 V  V2  1  0.00000  0.50000  0.00000  1
 V  V3  1  0.50000  0.00000  0.00000  1
 V  V4  1  0.00000  0.00000  0.50000  1
