CIF file written using JARVIS-Tools package.
data_CeB4Rh4
_symmetry_space_group_name_H-M  'P4_2/nmc'
_cell_length_a       5.35878
_cell_length_b       5.35878
_cell_length_c       7.53012
_cell_angle_alpha    90
_cell_angle_beta     90
_cell_angle_gamma    90

_symmetry_Int_Tables_number  137
_chemical_formula_structural  CeB4Rh4
_chemical_formula_sum  Ce2B8Rh8
_cell_volume  216.23920329031705
_cell_formula_units_Z  2
loop_
  _symmetry_equiv_pos_site_id
 _symmetry_equiv_pos_as_xyz
 1  'x, y, z'
loop_
 _atom_site_type_symbol
 _atom_site_label
 _atom_site_symmetry_multiplicity
 _atom_site_fract_x
 _atom_site_fract_y
 _atom_site_fract_z
 _atom_site_fract_occupancy
 B  B1  1  0.83344  0.50000  0.14946  1
 B  B2  1  0.00000  0.66656  0.64946  1
 B  B3  1  0.50000  0.83344  0.85054  1
 B  B4  1  0.33344  0.00000  0.35054  1
 B  B5  1  0.66656  0.00000  0.35054  1
 B  B6  1  0.50000  0.16656  0.85054  1
 B  B7  1  0.00000  0.33344  0.64946  1
 B  B8  1  0.16656  0.50000  0.14946  1
 Ce  Ce1  1  0.00000  0.00000  0.00000  1
 Ce  Ce2  1  0.50000  0.50000  0.50000  1
 Rh  Rh1  1  0.50000  0.75004  0.14552  1
 Rh  Rh2  1  0.24996  0.50000  0.85448  1
 Rh  Rh3  1  0.75004  0.50000  0.85448  1
 Rh  Rh4  1  0.00000  0.74996  0.35448  1
 Rh  Rh5  1  0.00000  0.25004  0.35448  1
 Rh  Rh6  1  0.25004  0.00000  0.64552  1
 Rh  Rh7  1  0.74996  0.00000  0.64552  1
 Rh  Rh8  1  0.50000  0.24996  0.14552  1
