CIF file written using JARVIS-Tools package.
data_Ge2O
_symmetry_space_group_name_H-M  'Pmm2'
_cell_length_a       2.90203
_cell_length_b       2.8348
_cell_length_c       6.1939
_cell_angle_alpha    90
_cell_angle_beta     89.987
_cell_angle_gamma    90

_symmetry_Int_Tables_number  25
_chemical_formula_structural  Ge2O
_chemical_formula_sum  Ge2O
_cell_volume  50.9550702591157
_cell_formula_units_Z  1
loop_
  _symmetry_equiv_pos_site_id
 _symmetry_equiv_pos_as_xyz
 1  'x, y, z'
loop_
 _atom_site_type_symbol
 _atom_site_label
 _atom_site_symmetry_multiplicity
 _atom_site_fract_x
 _atom_site_fract_y
 _atom_site_fract_z
 _atom_site_fract_occupancy
 Ge  Ge1  1  -0.19983  0.00000  -0.11243  1
 Ge  Ge2  1  0.29976  0.00000  0.41354  1
 O  O1  1  0.30007  0.00000  0.09889  1
