CIF file written using JARVIS-Tools package.
data_SrGaH2
_symmetry_space_group_name_H-M  'R-3m'
_cell_length_a       5.07952
_cell_length_b       5.07952
_cell_length_c       5.07951
_cell_angle_alpha    46.6868
_cell_angle_beta     46.6868
_cell_angle_gamma    46.6869

_symmetry_Int_Tables_number  166
_chemical_formula_structural  SrGaH2
_chemical_formula_sum  SrGaH2
_cell_volume  63.38286152250496
_cell_formula_units_Z  1
loop_
  _symmetry_equiv_pos_site_id
 _symmetry_equiv_pos_as_xyz
 1  'x, y, z'
loop_
 _atom_site_type_symbol
 _atom_site_label
 _atom_site_symmetry_multiplicity
 _atom_site_fract_x
 _atom_site_fract_y
 _atom_site_fract_z
 _atom_site_fract_occupancy
 Ga  Ga1  1  0.50000  0.50000  0.50000  1
 H  H1  1  0.23857  0.23857  0.23857  1
 H  H2  1  0.76143  0.76143  0.76143  1
 Sr  Sr1  1  0.00000  0.00000  0.00000  1
