CIF file written using JARVIS-Tools package.
data_GeO
_symmetry_space_group_name_H-M  'P1'
_cell_length_a       4.33536
_cell_length_b       3.04579
_cell_length_c       4.68137
_cell_angle_alpha    90.18
_cell_angle_beta     90.3224
_cell_angle_gamma    89.0058

_symmetry_Int_Tables_number  1
_chemical_formula_structural  GeO
_chemical_formula_sum  Ge2O2
_cell_volume  61.80495226955568
_cell_formula_units_Z  2
loop_
  _symmetry_equiv_pos_site_id
 _symmetry_equiv_pos_as_xyz
 1  'x, y, z'
loop_
 _atom_site_type_symbol
 _atom_site_label
 _atom_site_symmetry_multiplicity
 _atom_site_fract_x
 _atom_site_fract_y
 _atom_site_fract_z
 _atom_site_fract_occupancy
 Ge  Ge1  1  0.93571  0.08354  0.02004  1
 Ge  Ge2  1  0.45294  0.59445  0.51772  1
 O  O1  1  0.69348  0.08890  0.66931  1
 O  O2  1  0.69526  0.58937  0.16930  1
