CIF file written using JARVIS-Tools package.
data_TmNiO3
_symmetry_space_group_name_H-M  'Pnma'
_cell_length_a       5.55869
_cell_length_b       5.11493
_cell_length_c       8.89637
_cell_angle_alpha    54.9077
_cell_angle_beta     90
_cell_angle_gamma    90

_symmetry_Int_Tables_number  62
_chemical_formula_structural  TmNiO3
_chemical_formula_sum  Tm4Ni4O2
_cell_volume  206.9657354265208
_cell_formula_units_Z  4
loop_
  _symmetry_equiv_pos_site_id
 _symmetry_equiv_pos_as_xyz
 1  'x, y, z'
loop_
 _atom_site_type_symbol
 _atom_site_label
 _atom_site_symmetry_multiplicity
 _atom_site_fract_x
 _atom_site_fract_y
 _atom_site_fract_z
 _atom_site_fract_occupancy
 Ni  Ni1  1  0.50000  0.50000  0.50000  1
 Ni  Ni2  1  0.00000  0.50000  -0.00000  1
 Ni  Ni3  1  0.50000  0.00000  0.00000  1
 Ni  Ni4  1  0.00000  -0.00000  0.50000  1
 O  O1  1  0.69374  0.24169  0.44698  1
 O  O2  1  0.96543  0.86087  0.75001  1
 O  O3  1  0.30626  0.75831  0.55302  1
 O  O4  1  0.03457  0.13913  0.24999  1
 O  O5  1  0.46543  0.13913  0.74999  1
 O  O6  1  0.53457  0.86087  0.25001  1
 O  O7  1  0.69373  0.63565  0.05304  1
 O  O8  1  0.19374  0.75831  0.05302  1
 O  O9  1  0.30627  0.36435  0.94696  1
 O  O10  1  0.80627  0.63565  0.55304  1
 O  O11  1  0.80626  0.24169  0.94698  1
 O  O12  1  0.19373  0.36435  0.44696  1
 Tm  Tm1  1  0.08218  0.27334  0.75000  1
 Tm  Tm2  1  0.41782  0.27334  0.25000  1
 Tm  Tm3  1  0.91782  0.72666  0.25000  1
 Tm  Tm4  1  0.58218  0.72666  0.75000  1
