CIF file written using JARVIS-Tools package.
data_Nb2HO3
_symmetry_space_group_name_H-M  'Amm2'
_cell_length_a       2.9042
_cell_length_b       4.90211
_cell_length_c       4.90211
_cell_angle_alpha    92.1008
_cell_angle_beta     90
_cell_angle_gamma    90

_symmetry_Int_Tables_number  38
_chemical_formula_structural  Nb2HO3
_chemical_formula_sum  Nb2HO3
_cell_volume  69.74322365759033
_cell_formula_units_Z  1
loop_
  _symmetry_equiv_pos_site_id
 _symmetry_equiv_pos_as_xyz
 1  'x, y, z'
loop_
 _atom_site_type_symbol
 _atom_site_label
 _atom_site_symmetry_multiplicity
 _atom_site_fract_x
 _atom_site_fract_y
 _atom_site_fract_z
 _atom_site_fract_occupancy
 H  H1  1  0.50000  0.80488  0.80488  1
 Nb  Nb1  1  0.00000  -0.00137  -0.00137  1
 Nb  Nb2  1  0.50000  0.51347  0.51347  1
 O  O1  1  0.50000  0.21492  0.21492  1
 O  O2  1  0.00000  0.26720  0.70090  1
 O  O3  1  0.00000  0.70090  0.26720  1
