CIF file written using JARVIS-Tools package.
data_NbH2O
_symmetry_space_group_name_H-M  'Imm2'
_cell_length_a       4.9331
_cell_length_b       4.9331
_cell_length_c       4.9331
_cell_angle_alpha    145.534
_cell_angle_beta     59.3396
_cell_angle_gamma    133.274

_symmetry_Int_Tables_number  44
_chemical_formula_structural  NbH2O
_chemical_formula_sum  NbH2O
_cell_volume  49.01839804078974
_cell_formula_units_Z  1
loop_
  _symmetry_equiv_pos_site_id
 _symmetry_equiv_pos_as_xyz
 1  'x, y, z'
loop_
 _atom_site_type_symbol
 _atom_site_label
 _atom_site_symmetry_multiplicity
 _atom_site_fract_x
 _atom_site_fract_y
 _atom_site_fract_z
 _atom_site_fract_occupancy
 H  H1  1  0.33298  0.48624  0.84674  1
 H  H2  1  0.63950  0.48624  0.15326  1
 Nb  Nb1  1  0.52928  0.02928  0.50000  1
 O  O1  1  0.00482  0.50482  0.50000  1
