CIF file written using JARVIS-Tools package.
data_I2F
_symmetry_space_group_name_H-M  'P1'
_cell_length_a       4.16266
_cell_length_b       5.90994
_cell_length_c       4.57667
_cell_angle_alpha    84.724
_cell_angle_beta     61.0293
_cell_angle_gamma    100.716

_symmetry_Int_Tables_number  1
_chemical_formula_structural  I2F
_chemical_formula_sum  I2F
_cell_volume  94.58971023113888
_cell_formula_units_Z  1
loop_
  _symmetry_equiv_pos_site_id
 _symmetry_equiv_pos_as_xyz
 1  'x, y, z'
loop_
 _atom_site_type_symbol
 _atom_site_label
 _atom_site_symmetry_multiplicity
 _atom_site_fract_x
 _atom_site_fract_y
 _atom_site_fract_z
 _atom_site_fract_occupancy
 F  F1  1  0.08222  0.96915  0.01687  1
 I  I1  1  0.07064  0.96258  0.52231  1
 I  I2  1  0.20628  0.48427  0.45665  1
