CIF file written using JARVIS-Tools package.
data_Li2Te
_symmetry_space_group_name_H-M  'P2/m'
_cell_length_a       4.68559
_cell_length_b       4.65809
_cell_length_c       4.65416
_cell_angle_alpha    90
_cell_angle_beta     119.206
_cell_angle_gamma    90

_symmetry_Int_Tables_number  10
_chemical_formula_structural  Li2Te
_chemical_formula_sum  Li2Te
_cell_volume  88.66760467759865
_cell_formula_units_Z  1
loop_
  _symmetry_equiv_pos_site_id
 _symmetry_equiv_pos_as_xyz
 1  'x, y, z'
loop_
 _atom_site_type_symbol
 _atom_site_label
 _atom_site_symmetry_multiplicity
 _atom_site_fract_x
 _atom_site_fract_y
 _atom_site_fract_z
 _atom_site_fract_occupancy
 Li  Li1  1  -0.20011  0.00000  -0.19977  1
 Li  Li2  1  0.13344  0.00000  0.46644  1
 Te  Te1  1  0.46668  0.00000  0.13333  1
