CIF file written using JARVIS-Tools package.
data_Li2VO3
_symmetry_space_group_name_H-M  'Immm'
_cell_length_a       5.08204
_cell_length_b       5.08204
_cell_length_c       2.84919
_cell_angle_alpha    106.213
_cell_angle_beta     106.213
_cell_angle_gamma    44.8816

_symmetry_Int_Tables_number  71
_chemical_formula_structural  Li2VO3
_chemical_formula_sum  Li2VO3
_cell_volume  49.50006677820029
_cell_formula_units_Z  1
loop_
  _symmetry_equiv_pos_site_id
 _symmetry_equiv_pos_as_xyz
 1  'x, y, z'
loop_
 _atom_site_type_symbol
 _atom_site_label
 _atom_site_symmetry_multiplicity
 _atom_site_fract_x
 _atom_site_fract_y
 _atom_site_fract_z
 _atom_site_fract_occupancy
 Li  Li1  1  0.82534  0.82534  0.82554  1
 Li  Li2  1  0.17466  0.17466  0.17446  1
 O  O1  1  0.65029  0.65029  0.14993  1
 O  O2  1  1.00000  1.00000  0.50000  1
 O  O3  1  0.34971  0.34971  0.85007  1
 V  V1  1  0.50000  0.50000  0.50000  1
