CIF file written using JARVIS-Tools package.
data_LiTe2
_symmetry_space_group_name_H-M  'C2/m'
_cell_length_a       6.16175
_cell_length_b       3.86953
_cell_length_c       5.47838
_cell_angle_alpha    134.906
_cell_angle_beta     90.1025
_cell_angle_gamma    71.4387

_symmetry_Int_Tables_number  12
_chemical_formula_structural  LiTe2
_chemical_formula_sum  LiTe2
_cell_volume  82.72627813620774
_cell_formula_units_Z  1
loop_
  _symmetry_equiv_pos_site_id
 _symmetry_equiv_pos_as_xyz
 1  'x, y, z'
loop_
 _atom_site_type_symbol
 _atom_site_label
 _atom_site_symmetry_multiplicity
 _atom_site_fract_x
 _atom_site_fract_y
 _atom_site_fract_z
 _atom_site_fract_occupancy
 Li  Li1  1  0.92576  0.83644  0.89049  1
 Te  Te1  1  0.67503  0.08887  0.51591  1
 Te  Te2  1  0.17599  0.58505  0.26557  1
