CIF file written using JARVIS-Tools package.
data_LiTe2
_symmetry_space_group_name_H-M  'Pmmm'
_cell_length_a       4.57565
_cell_length_b       3.21596
_cell_length_c       6.35147
_cell_angle_alpha    90
_cell_angle_beta     90
_cell_angle_gamma    90

_symmetry_Int_Tables_number  47
_chemical_formula_structural  LiTe2
_chemical_formula_sum  LiTe2
_cell_volume  93.46261563365246
_cell_formula_units_Z  1
loop_
  _symmetry_equiv_pos_site_id
 _symmetry_equiv_pos_as_xyz
 1  'x, y, z'
loop_
 _atom_site_type_symbol
 _atom_site_label
 _atom_site_symmetry_multiplicity
 _atom_site_fract_x
 _atom_site_fract_y
 _atom_site_fract_z
 _atom_site_fract_occupancy
 Li  Li1  1  0.46670  0.00000  0.00000  1
 Te  Te1  1  -0.03335  0.00000  0.74393  1
 Te  Te2  1  -0.03335  0.00000  0.25607  1
