CIF file written using JARVIS-Tools package.
data_MgPO
_symmetry_space_group_name_H-M  'Pm'
_cell_length_a       3.48392
_cell_length_b       5.70973
_cell_length_c       3.09099
_cell_angle_alpha    90
_cell_angle_beta     90
_cell_angle_gamma    53.0182

_symmetry_Int_Tables_number  6
_chemical_formula_structural  MgPO
_chemical_formula_sum  MgPO
_cell_volume  49.117366082114046
_cell_formula_units_Z  1
loop_
  _symmetry_equiv_pos_site_id
 _symmetry_equiv_pos_as_xyz
 1  'x, y, z'
loop_
 _atom_site_type_symbol
 _atom_site_label
 _atom_site_symmetry_multiplicity
 _atom_site_fract_x
 _atom_site_fract_y
 _atom_site_fract_z
 _atom_site_fract_occupancy
 Mg  Mg1  1  0.01639  -0.17859  0.00000  1
 O  O1  1  0.28659  0.05390  0.00000  1
 P  P1  1  -0.08195  0.41753  0.00000  1
