CIF file written using JARVIS-Tools package.
data_AlP
_symmetry_space_group_name_H-M  'Imm2'
_cell_length_a       3.88959
_cell_length_b       5.18642
_cell_length_c       5.18663
_cell_angle_alpha    84.3672
_cell_angle_beta     112.022
_cell_angle_gamma    112.021

_symmetry_Int_Tables_number  44
_chemical_formula_structural  AlP
_chemical_formula_sum  Al2P2
_cell_volume  89.8106638419587
_cell_formula_units_Z  2
loop_
  _symmetry_equiv_pos_site_id
 _symmetry_equiv_pos_as_xyz
 1  'x, y, z'
loop_
 _atom_site_type_symbol
 _atom_site_label
 _atom_site_symmetry_multiplicity
 _atom_site_fract_x
 _atom_site_fract_y
 _atom_site_fract_z
 _atom_site_fract_occupancy
 Al  Al1  1  0.83569  0.02489  0.02462  1
 Al  Al2  1  0.83569  0.39548  0.65411  1
 P  P1  1  0.20349  0.74035  0.04474  1
 P  P2  1  0.20342  0.41548  0.36957  1
