CIF file written using JARVIS-Tools package.
data_Li7Mn4CoO12
_symmetry_space_group_name_H-M  'P1'
_cell_length_a       4.90873
_cell_length_b       5.00866
_cell_length_c       8.58085
_cell_angle_alpha    72.4569
_cell_angle_beta     84.5214
_cell_angle_gamma    80.6022

_symmetry_Int_Tables_number  1
_chemical_formula_structural  Li7Mn4CoO12
_chemical_formula_sum  Li7Mn4CoO2
_cell_volume  198.2184340507891
_cell_formula_units_Z  1
loop_
  _symmetry_equiv_pos_site_id
 _symmetry_equiv_pos_as_xyz
 1  'x, y, z'
loop_
 _atom_site_type_symbol
 _atom_site_label
 _atom_site_symmetry_multiplicity
 _atom_site_fract_x
 _atom_site_fract_y
 _atom_site_fract_z
 _atom_site_fract_occupancy
 Co  Co1  1  0.49996  0.16664  0.83163  1
 Li  Li1  1  0.00036  0.33337  0.66731  1
 Li  Li2  1  0.76040  0.92019  0.58909  1
 Li  Li3  1  0.75179  0.25003  0.25317  1
 Li  Li4  1  0.24713  0.41339  0.08056  1
 Li  Li5  1  0.24403  0.75017  0.74414  1
 Li  Li6  1  0.75265  0.58181  0.90482  1
 Li  Li7  1  0.24295  0.08832  0.42547  1
 Mn  Mn1  1  -0.00005  0.00535  0.99209  1
 Mn  Mn2  1  0.50027  0.49530  0.50684  1
 Mn  Mn3  1  0.00001  0.66506  0.33690  1
 Mn  Mn4  1  0.49999  0.83085  0.16875  1
 O  O1  1  0.37394  0.47656  0.29633  1
 O  O2  1  0.39263  0.14557  0.62735  1
 O  O3  1  0.86802  0.96349  0.80532  1
 O  O4  1  0.36973  0.81170  0.96479  1
 O  O5  1  0.60742  0.52348  0.70457  1
 O  O6  1  0.13276  0.34395  0.88166  1
 O  O7  1  0.13796  0.70329  0.52714  1
 O  O8  1  0.63017  0.18345  0.03832  1
 O  O9  1  0.12875  0.02232  0.20213  1
 O  O10  1  0.87072  0.64640  0.12881  1
 O  O11  1  0.62621  0.85604  0.37122  1
 O  O12  1  0.86219  0.32327  0.45157  1
