CIF file written using JARVIS-Tools package.
data_As3H
_symmetry_space_group_name_H-M  'P1'
_cell_length_a       5.96343
_cell_length_b       5.87412
_cell_length_c       3.87289
_cell_angle_alpha    107.614
_cell_angle_beta     110.532
_cell_angle_gamma    121.068

_symmetry_Int_Tables_number  1
_chemical_formula_structural  As3H
_chemical_formula_sum  As3H
_cell_volume  86.82304378443264
_cell_formula_units_Z  1
loop_
  _symmetry_equiv_pos_site_id
 _symmetry_equiv_pos_as_xyz
 1  'x, y, z'
loop_
 _atom_site_type_symbol
 _atom_site_label
 _atom_site_symmetry_multiplicity
 _atom_site_fract_x
 _atom_site_fract_y
 _atom_site_fract_z
 _atom_site_fract_occupancy
 As  As1  1  0.90632  0.00520  0.05934  1
 As  As2  1  0.97557  0.46687  0.07538  1
 As  As3  1  0.57460  0.11050  0.19165  1
 H  H1  1  0.20310  0.24486  0.58283  1
