CIF file written using JARVIS-Tools package.
data_Mn2NiO4
_symmetry_space_group_name_H-M  'Fd-3m'
_cell_length_a       5.82014
_cell_length_b       5.82015
_cell_length_c       5.82015
_cell_angle_alpha    120.053
_cell_angle_beta     120.052
_cell_angle_gamma    89.9097

_symmetry_Int_Tables_number  227
_chemical_formula_structural  Mn2NiO4
_chemical_formula_sum  Mn4Ni2O8
_cell_volume  139.29746895422792
_cell_formula_units_Z  2
loop_
  _symmetry_equiv_pos_site_id
 _symmetry_equiv_pos_as_xyz
 1  'x, y, z'
loop_
 _atom_site_type_symbol
 _atom_site_label
 _atom_site_symmetry_multiplicity
 _atom_site_fract_x
 _atom_site_fract_y
 _atom_site_fract_z
 _atom_site_fract_occupancy
 Mn  Mn1  1  0.50000  0.50000  -0.00000  1
 Mn  Mn2  1  0.50000  -0.00000  -0.00000  1
 Mn  Mn3  1  0.50000  0.50000  0.50000  1
 Mn  Mn4  1  -0.00000  0.50000  0.50000  1
 Ni  Ni1  1  0.87499  0.12499  0.75000  1
 Ni  Ni2  1  0.12501  0.87501  0.25000  1
 O  O1  1  0.71680  0.73876  0.97804  1
 O  O2  1  0.73875  0.26072  0.02197  1
 O  O3  1  0.73929  0.26124  0.47804  1
 O  O4  1  0.73875  0.71678  0.47803  1
 O  O5  1  0.26071  0.73876  0.52196  1
 O  O6  1  0.26125  0.28322  0.52197  1
 O  O7  1  0.28320  0.26124  0.02196  1
 O  O8  1  0.26125  0.73928  0.97803  1
