CIF file written using JARVIS-Tools package.
data_AuBr2
_symmetry_space_group_name_H-M  'P-1'
_cell_length_a       6.43272
_cell_length_b       6.37876
_cell_length_c       4.0804
_cell_angle_alpha    145.525
_cell_angle_beta     102.715
_cell_angle_gamma    68.9303

_symmetry_Int_Tables_number  2
_chemical_formula_structural  AuBr2
_chemical_formula_sum  AuBr2
_cell_volume  87.51057003356944
_cell_formula_units_Z  1
loop_
  _symmetry_equiv_pos_site_id
 _symmetry_equiv_pos_as_xyz
 1  'x, y, z'
loop_
 _atom_site_type_symbol
 _atom_site_label
 _atom_site_symmetry_multiplicity
 _atom_site_fract_x
 _atom_site_fract_y
 _atom_site_fract_z
 _atom_site_fract_occupancy
 Au  Au1  1  0.96533  0.06422  0.14784  1
 Br  Br1  1  0.23509  0.48561  0.81744  1
 Br  Br2  1  0.69558  0.64278  0.47812  1
