CIF file written using JARVIS-Tools package.
data_Tb6OsI10
_symmetry_space_group_name_H-M  'P-1'
_cell_length_a       7.65978
_cell_length_b       9.59352
_cell_length_c       9.65243
_cell_angle_alpha    107.8
_cell_angle_beta     97.2627
_cell_angle_gamma    105.276

_symmetry_Int_Tables_number  2
_chemical_formula_structural  Tb6OsI10
_chemical_formula_sum  Tb6OsI0
_cell_volume  634.7333792899485
_cell_formula_units_Z  1
loop_
  _symmetry_equiv_pos_site_id
 _symmetry_equiv_pos_as_xyz
 1  'x, y, z'
loop_
 _atom_site_type_symbol
 _atom_site_label
 _atom_site_symmetry_multiplicity
 _atom_site_fract_x
 _atom_site_fract_y
 _atom_site_fract_z
 _atom_site_fract_occupancy
 I  I1  1  0.72751  0.90966  0.53388  1
 I  I2  1  0.36638  0.46494  0.27749  1
 I  I3  1  0.91075  0.62894  0.18423  1
 I  I4  1  0.79731  0.27084  0.35992  1
 I  I5  1  0.63362  0.53506  0.72251  1
 I  I6  1  0.54922  0.18802  0.90701  1
 I  I7  1  0.45078  0.81198  0.09299  1
 I  I8  1  0.20269  0.72916  0.64008  1
 I  I9  1  0.08925  0.37106  0.81577  1
 I  I10  1  0.27249  0.09034  0.46612  1
 Os  Os1  1  0.00000  0.00000  0.00000  1
 Tb  Tb1  1  0.11295  0.03798  0.75436  1
 Tb  Tb2  1  0.88705  0.96202  0.24564  1
 Tb  Tb3  1  0.02605  0.71360  0.91378  1
 Tb  Tb4  1  0.97395  0.28640  0.08622  1
 Tb  Tb5  1  0.64052  0.86861  0.82921  1
 Tb  Tb6  1  0.35948  0.13139  0.17079  1
