CIF file written using JARVIS-Tools package.
data_Ta4AlN3
_symmetry_space_group_name_H-M  'P6_3/mmc'
_cell_length_a       2.97015
_cell_length_b       2.97014
_cell_length_c       25.8732
_cell_angle_alpha    90
_cell_angle_beta     90
_cell_angle_gamma    120

_symmetry_Int_Tables_number  194
_chemical_formula_structural  Ta4AlN3
_chemical_formula_sum  Ta8Al2N6
_cell_volume  197.6685665148177
_cell_formula_units_Z  2
loop_
  _symmetry_equiv_pos_site_id
 _symmetry_equiv_pos_as_xyz
 1  'x, y, z'
loop_
 _atom_site_type_symbol
 _atom_site_label
 _atom_site_symmetry_multiplicity
 _atom_site_fract_x
 _atom_site_fract_y
 _atom_site_fract_z
 _atom_site_fract_occupancy
 Al  Al1  1  0.33333  0.66667  0.25000  1
 Al  Al2  1  0.66667  0.33333  0.75000  1
 N  N1  1  0.00000  0.00000  0.50000  1
 N  N2  1  0.00000  0.00000  0.00000  1
 N  N3  1  0.00000  0.00000  0.39158  1
 N  N4  1  0.00000  0.00000  0.60842  1
 N  N5  1  0.00000  0.00000  0.89158  1
 N  N6  1  0.00000  0.00000  0.10842  1
 Ta  Ta1  1  0.33333  0.66667  0.44502  1
 Ta  Ta2  1  0.66667  0.33333  0.55498  1
 Ta  Ta3  1  0.66667  0.33333  0.94502  1
 Ta  Ta4  1  0.33333  0.66667  0.05498  1
 Ta  Ta5  1  0.33333  0.66667  0.83652  1
 Ta  Ta6  1  0.66667  0.33333  0.16348  1
 Ta  Ta7  1  0.66667  0.33333  0.33652  1
 Ta  Ta8  1  0.33333  0.66667  0.66348  1
