CIF file written using JARVIS-Tools package.
data_Yb2B6Rh9
_symmetry_space_group_name_H-M  'P6/mmm'
_cell_length_a       5.59591
_cell_length_b       5.59591
_cell_length_c       8.51365
_cell_angle_alpha    90
_cell_angle_beta     90
_cell_angle_gamma    120

_symmetry_Int_Tables_number  191
_chemical_formula_structural  Yb2B6Rh9
_chemical_formula_sum  Yb2B6Rh9
_cell_volume  230.88107211186684
_cell_formula_units_Z  1
loop_
  _symmetry_equiv_pos_site_id
 _symmetry_equiv_pos_as_xyz
 1  'x, y, z'
loop_
 _atom_site_type_symbol
 _atom_site_label
 _atom_site_symmetry_multiplicity
 _atom_site_fract_x
 _atom_site_fract_y
 _atom_site_fract_z
 _atom_site_fract_occupancy
 B  B1  1  0.66667  0.33333  0.00000  1
 B  B2  1  0.33333  0.66667  0.00000  1
 B  B3  1  0.66667  0.33333  0.66741  1
 B  B4  1  0.33333  0.66667  0.66741  1
 B  B5  1  0.33333  0.66667  0.33259  1
 B  B6  1  0.66667  0.33333  0.33259  1
 Rh  Rh1  1  0.50000  0.50000  0.50000  1
 Rh  Rh2  1  0.50000  0.00000  0.50000  1
 Rh  Rh3  1  0.50000  0.00000  0.83478  1
 Rh  Rh4  1  -0.00000  0.50000  0.83478  1
 Rh  Rh5  1  0.50000  0.50000  0.83478  1
 Rh  Rh6  1  -0.00000  0.50000  0.50000  1
 Rh  Rh7  1  -0.00000  0.50000  0.16522  1
 Rh  Rh8  1  0.50000  0.50000  0.16522  1
 Rh  Rh9  1  0.50000  0.00000  0.16522  1
 Yb  Yb1  1  0.00000  0.00000  0.29351  1
 Yb  Yb2  1  0.00000  0.00000  0.70649  1
