CIF file written using JARVIS-Tools package.
data_Er4MgCo
_symmetry_space_group_name_H-M  'F-43m'
_cell_length_a       9.4072
_cell_length_b       9.40719
_cell_length_c       9.4072
_cell_angle_alpha    60
_cell_angle_beta     60
_cell_angle_gamma    60

_symmetry_Int_Tables_number  216
_chemical_formula_structural  Er4MgCo
_chemical_formula_sum  Er6Mg4Co4
_cell_volume  588.6615545809861
_cell_formula_units_Z  4
loop_
  _symmetry_equiv_pos_site_id
 _symmetry_equiv_pos_as_xyz
 1  'x, y, z'
loop_
 _atom_site_type_symbol
 _atom_site_label
 _atom_site_symmetry_multiplicity
 _atom_site_fract_x
 _atom_site_fract_y
 _atom_site_fract_z
 _atom_site_fract_occupancy
 Co  Co1  1  0.82850  0.39050  0.39050  1
 Co  Co2  1  0.39050  0.39050  0.39050  1
 Co  Co3  1  0.39050  0.82850  0.39050  1
 Co  Co4  1  0.39050  0.39050  0.82850  1
 Er  Er1  1  0.06354  0.43646  0.06354  1
 Er  Er2  1  0.59398  0.59398  0.21807  1
 Er  Er3  1  0.59398  0.21807  0.59398  1
 Er  Er4  1  0.21807  0.59398  0.59398  1
 Er  Er5  1  0.43646  0.06354  0.06354  1
 Er  Er6  1  0.59398  0.59398  0.59398  1
 Er  Er7  1  0.81331  0.18669  0.18669  1
 Er  Er8  1  0.43646  0.43646  0.06354  1
 Er  Er9  1  0.06354  0.06354  0.43646  1
 Er  Er10  1  0.18669  0.81331  0.81331  1
 Er  Er11  1  0.81331  0.18669  0.81331  1
 Er  Er12  1  0.18669  0.81331  0.18669  1
 Er  Er13  1  0.81331  0.81331  0.18669  1
 Er  Er14  1  0.18669  0.18669  0.81331  1
 Er  Er15  1  0.43646  0.06354  0.43646  1
 Er  Er16  1  0.06354  0.43646  0.43646  1
 Mg  Mg1  1  0.82951  0.82951  0.82951  1
 Mg  Mg2  1  0.82951  0.82951  0.51148  1
 Mg  Mg3  1  0.82951  0.51148  0.82951  1
 Mg  Mg4  1  0.51148  0.82951  0.82951  1
