CIF file written using JARVIS-Tools package.
data_Ba3UAgS6
_symmetry_space_group_name_H-M  'R-3c'
_cell_length_a       8.48042
_cell_length_b       8.48042
_cell_length_c       8.48042
_cell_angle_alpha    92.6445
_cell_angle_beta     92.6445
_cell_angle_gamma    92.6445

_symmetry_Int_Tables_number  167
_chemical_formula_structural  Ba3UAgS6
_chemical_formula_sum  Ba6U2Ag2S2
_cell_volume  607.8796834277451
_cell_formula_units_Z  2
loop_
  _symmetry_equiv_pos_site_id
 _symmetry_equiv_pos_as_xyz
 1  'x, y, z'
loop_
 _atom_site_type_symbol
 _atom_site_label
 _atom_site_symmetry_multiplicity
 _atom_site_fract_x
 _atom_site_fract_y
 _atom_site_fract_z
 _atom_site_fract_occupancy
 Ag  Ag1  1  0.25000  0.25000  0.25000  1
 Ag  Ag2  1  0.75000  0.75000  0.75000  1
 Ba  Ba1  1  0.37545  0.12455  0.75000  1
 Ba  Ba2  1  0.75000  0.37545  0.12455  1
 Ba  Ba3  1  0.12455  0.75000  0.37545  1
 Ba  Ba4  1  0.25000  0.62455  0.87545  1
 Ba  Ba5  1  0.87545  0.25000  0.62455  1
 Ba  Ba6  1  0.62455  0.87545  0.25000  1
 S  S1  1  0.29531  0.95162  0.08383  1
 S  S2  1  0.54838  0.20469  0.41617  1
 S  S3  1  0.41617  0.54838  0.20469  1
 S  S4  1  0.04838  0.91617  0.70469  1
 S  S5  1  0.20469  0.41617  0.54838  1
 S  S6  1  0.91617  0.70469  0.04838  1
 S  S7  1  0.95162  0.08383  0.29531  1
 S  S8  1  0.45162  0.79531  0.58383  1
 S  S9  1  0.58383  0.45162  0.79531  1
 S  S10  1  0.70469  0.04838  0.91617  1
 S  S11  1  0.79531  0.58383  0.45162  1
 S  S12  1  0.08383  0.29531  0.95162  1
 U  U1  1  0.00000  0.00000  0.00000  1
 U  U2  1  0.50000  0.50000  0.50000  1
