CIF file written using JARVIS-Tools package.
data_PrSe2
_symmetry_space_group_name_H-M  'P-4b2'
_cell_length_a       8.42174
_cell_length_b       8.42174
_cell_length_c       8.62571
_cell_angle_alpha    90
_cell_angle_beta     90
_cell_angle_gamma    90

_symmetry_Int_Tables_number  117
_chemical_formula_structural  PrSe2
_chemical_formula_sum  Pr8Se6
_cell_volume  611.7847289872092
_cell_formula_units_Z  8
loop_
  _symmetry_equiv_pos_site_id
 _symmetry_equiv_pos_as_xyz
 1  'x, y, z'
loop_
 _atom_site_type_symbol
 _atom_site_label
 _atom_site_symmetry_multiplicity
 _atom_site_fract_x
 _atom_site_fract_y
 _atom_site_fract_z
 _atom_site_fract_occupancy
 Pr  Pr1  1  0.25060  0.49262  0.72551  1
 Pr  Pr2  1  0.24940  0.99262  0.72551  1
 Pr  Pr3  1  0.74940  0.50738  0.72551  1
 Pr  Pr4  1  0.75060  0.00738  0.72551  1
 Pr  Pr5  1  0.50738  0.25060  0.27449  1
 Pr  Pr6  1  0.99262  0.75060  0.27449  1
 Pr  Pr7  1  0.49262  0.74940  0.27449  1
 Pr  Pr8  1  0.00738  0.24940  0.27449  1
 Se  Se1  1  0.50159  0.24996  0.63218  1
 Se  Se2  1  0.99841  0.74996  0.63218  1
 Se  Se3  1  0.49841  0.75004  0.63218  1
 Se  Se4  1  0.50000  0.50000  0.00000  1
 Se  Se5  1  0.75004  0.50159  0.36782  1
 Se  Se6  1  0.74996  0.00159  0.36782  1
 Se  Se7  1  0.00159  0.25004  0.63218  1
 Se  Se8  1  0.77017  0.27017  0.00000  1
 Se  Se9  1  0.22983  0.72983  0.00000  1
 Se  Se10  1  0.27017  0.22983  0.00000  1
 Se  Se11  1  0.24996  0.49841  0.36782  1
 Se  Se12  1  0.72983  0.77017  0.00000  1
 Se  Se13  1  0.00000  0.50000  0.00000  1
 Se  Se14  1  0.50000  0.00000  0.00000  1
 Se  Se15  1  0.25004  0.99841  0.36782  1
 Se  Se16  1  0.00000  0.00000  0.00000  1
