CIF file written using JARVIS-Tools package.
data_Li2Zr6MnCl15
_symmetry_space_group_name_H-M  'I4/mmm'
_cell_length_a       8.95754
_cell_length_b       8.95753
_cell_length_c       8.95753
_cell_angle_alpha    108.918
_cell_angle_beta     108.918
_cell_angle_gamma    110.584

_symmetry_Int_Tables_number  139
_chemical_formula_structural  Li2Zr6MnCl15
_chemical_formula_sum  Li2Zr6MnCl5
_cell_volume  553.1217915486292
_cell_formula_units_Z  1
loop_
  _symmetry_equiv_pos_site_id
 _symmetry_equiv_pos_as_xyz
 1  'x, y, z'
loop_
 _atom_site_type_symbol
 _atom_site_label
 _atom_site_symmetry_multiplicity
 _atom_site_fract_x
 _atom_site_fract_y
 _atom_site_fract_z
 _atom_site_fract_occupancy
 Cl  Cl1  1  0.00212  0.25254  0.74959  1
 Cl  Cl2  1  0.50000  0.50000  -0.00000  1
 Cl  Cl3  1  -0.00000  0.50000  0.50000  1
 Cl  Cl4  1  0.49705  0.74746  0.74959  1
 Cl  Cl5  1  0.24632  0.24632  0.49264  1
 Cl  Cl6  1  -0.00212  0.74746  0.25041  1
 Cl  Cl7  1  0.74746  -0.00212  0.25041  1
 Cl  Cl8  1  0.50000  0.00000  0.50000  1
 Cl  Cl9  1  0.50295  0.25254  0.25041  1
 Cl  Cl10  1  0.25254  0.00212  0.74959  1
 Cl  Cl11  1  0.75368  0.24632  -0.00000  1
 Cl  Cl12  1  0.74746  0.49705  0.74959  1
 Cl  Cl13  1  0.25254  0.50295  0.25041  1
 Cl  Cl14  1  0.75368  0.75368  0.50736  1
 Cl  Cl15  1  0.24632  0.75368  -0.00000  1
 Li  Li1  1  0.75000  0.25000  0.50000  1
 Li  Li2  1  0.25000  0.75000  0.50000  1
 Mn  Mn1  1  0.00000  0.00000  0.00000  1
 Zr  Zr1  1  0.76928  -0.00000  0.76928  1
 Zr  Zr2  1  -0.00000  0.76928  0.76928  1
 Zr  Zr3  1  0.23954  0.23954  0.00000  1
 Zr  Zr4  1  0.23072  0.00000  0.23072  1
 Zr  Zr5  1  0.00000  0.23072  0.23072  1
 Zr  Zr6  1  0.76046  0.76046  -0.00000  1
