CIF file written using JARVIS-Tools package.
data_KBa3Bi4O12
_symmetry_space_group_name_H-M  'Pmm2'
_cell_length_a       6.15765
_cell_length_b       6.208
_cell_length_c       8.69948
_cell_angle_alpha    90
_cell_angle_beta     90
_cell_angle_gamma    90

_symmetry_Int_Tables_number  25
_chemical_formula_structural  KBa3Bi4O12
_chemical_formula_sum  KBa3Bi4O2
_cell_volume  332.5521315037135
_cell_formula_units_Z  1
loop_
  _symmetry_equiv_pos_site_id
 _symmetry_equiv_pos_as_xyz
 1  'x, y, z'
loop_
 _atom_site_type_symbol
 _atom_site_label
 _atom_site_symmetry_multiplicity
 _atom_site_fract_x
 _atom_site_fract_y
 _atom_site_fract_z
 _atom_site_fract_occupancy
 Ba  Ba1  1  0.00000  0.49598  0.00000  1
 Ba  Ba2  1  0.50000  0.99618  0.00000  1
 Ba  Ba3  1  0.00000  0.49337  0.50000  1
 Bi  Bi1  1  0.00000  0.99800  0.25220  1
 Bi  Bi2  1  0.50000  0.50077  0.74794  1
 Bi  Bi3  1  0.00000  0.99800  0.74780  1
 Bi  Bi4  1  0.50000  0.50077  0.25206  1
 K  K1  1  0.50000  0.00862  0.50000  1
 O  O1  1  0.00000  0.05251  0.00000  1
 O  O2  1  0.24792  0.74637  0.21155  1
 O  O3  1  0.00000  0.93532  0.50000  1
 O  O4  1  0.50000  0.44025  0.00000  1
 O  O5  1  0.50000  0.56026  0.50000  1
 O  O6  1  0.24262  0.25863  0.27396  1
 O  O7  1  0.75208  0.74637  0.21155  1
 O  O8  1  0.24262  0.25863  0.72604  1
 O  O9  1  0.75738  0.25863  0.27396  1
 O  O10  1  0.75208  0.74637  0.78845  1
 O  O11  1  0.24792  0.74637  0.78845  1
 O  O12  1  0.75738  0.25863  0.72604  1
