CIF file written using JARVIS-Tools package.
data_Cr4Se3N2
_symmetry_space_group_name_H-M  'Pnnm'
_cell_length_a       6.43185
_cell_length_b       13.0727
_cell_length_c       3.35324
_cell_angle_alpha    90
_cell_angle_beta     90
_cell_angle_gamma    90

_symmetry_Int_Tables_number  58
_chemical_formula_structural  Cr4Se3N2
_chemical_formula_sum  Cr8Se6N4
_cell_volume  281.9467226963193
_cell_formula_units_Z  2
loop_
  _symmetry_equiv_pos_site_id
 _symmetry_equiv_pos_as_xyz
 1  'x, y, z'
loop_
 _atom_site_type_symbol
 _atom_site_label
 _atom_site_symmetry_multiplicity
 _atom_site_fract_x
 _atom_site_fract_y
 _atom_site_fract_z
 _atom_site_fract_occupancy
 Cr  Cr1  1  0.68728  0.93825  0.50000  1
 Cr  Cr2  1  0.31272  0.06175  0.50000  1
 Cr  Cr3  1  0.18728  0.56175  0.00000  1
 Cr  Cr4  1  0.81272  0.43825  0.00000  1
 Cr  Cr5  1  0.80378  0.64275  0.50000  1
 Cr  Cr6  1  0.19622  0.35725  0.50000  1
 Cr  Cr7  1  0.30378  0.85725  0.00000  1
 Cr  Cr8  1  0.69622  0.14275  0.00000  1
 N  N1  1  0.61431  0.07909  0.50000  1
 N  N2  1  0.11431  0.42091  0.00000  1
 N  N3  1  0.88569  0.57909  0.00000  1
 N  N4  1  0.38569  0.92091  0.50000  1
 Se  Se1  1  0.50000  0.50000  0.50000  1
 Se  Se2  1  0.00000  0.00000  0.00000  1
 Se  Se3  1  0.83449  0.28270  0.50000  1
 Se  Se4  1  0.33449  0.21730  0.00000  1
 Se  Se5  1  0.16551  0.71730  0.50000  1
 Se  Se6  1  0.66551  0.78270  0.00000  1
