CIF file written using JARVIS-Tools package.
data_Sr3Fe2Cl2O4
_symmetry_space_group_name_H-M  'I4/mmm'
_cell_length_a       5.59099
_cell_length_b       5.59105
_cell_length_c       11.6006
_cell_angle_alpha    90
_cell_angle_beta     76.0563
_cell_angle_gamma    90

_symmetry_Int_Tables_number  139
_chemical_formula_structural  Sr3Fe2Cl2O4
_chemical_formula_sum  Sr6Fe4Cl4O8
_cell_volume  351.9432236776108
_cell_formula_units_Z  2
loop_
  _symmetry_equiv_pos_site_id
 _symmetry_equiv_pos_as_xyz
 1  'x, y, z'
loop_
 _atom_site_type_symbol
 _atom_site_label
 _atom_site_symmetry_multiplicity
 _atom_site_fract_x
 _atom_site_fract_y
 _atom_site_fract_z
 _atom_site_fract_occupancy
 Cl  Cl1  1  0.70371  1.00000  0.59258  1
 Cl  Cl2  1  0.20371  0.50000  0.59258  1
 Cl  Cl3  1  0.29629  -0.00000  0.40742  1
 Cl  Cl4  1  0.79629  0.50000  0.40742  1
 Fe  Fe1  1  0.43071  0.00000  0.13862  1
 Fe  Fe2  1  0.06929  0.50000  0.86138  1
 Fe  Fe3  1  0.93071  0.50000  0.13862  1
 Fe  Fe4  1  0.56929  -0.00000  0.86138  1
 O  O1  1  0.67374  0.25000  0.15253  1
 O  O2  1  0.82626  0.75000  0.84747  1
 O  O3  1  0.32625  0.25000  0.84747  1
 O  O4  1  0.32625  0.75000  0.84747  1
 O  O5  1  0.82626  0.25000  0.84747  1
 O  O6  1  0.17374  0.25000  0.15253  1
 O  O7  1  0.67374  0.75000  0.15253  1
 O  O8  1  0.17374  0.75000  0.15253  1
 Sr  Sr1  1  0.84858  0.00000  0.30285  1
 Sr  Sr2  1  0.34858  0.50000  0.30285  1
 Sr  Sr3  1  0.65142  0.50000  0.69715  1
 Sr  Sr4  1  0.15142  0.00000  0.69715  1
 Sr  Sr5  1  -0.00000  0.00000  0.00000  1
 Sr  Sr6  1  0.50000  0.50000  0.00000  1
