CIF file written using JARVIS-Tools package.
data_Ce3Si4Pd4
_symmetry_space_group_name_H-M  'Immm'
_cell_length_a       12.7775
_cell_length_b       12.7774
_cell_length_c       12.7774
_cell_angle_alpha    161.61
_cell_angle_beta     160.899
_cell_angle_gamma    26.6359

_symmetry_Int_Tables_number  71
_chemical_formula_structural  Ce3Si4Pd4
_chemical_formula_sum  Ce3Si4Pd4
_cell_volume  215.2827214740709
_cell_formula_units_Z  1
loop_
  _symmetry_equiv_pos_site_id
 _symmetry_equiv_pos_as_xyz
 1  'x, y, z'
loop_
 _atom_site_type_symbol
 _atom_site_label
 _atom_site_symmetry_multiplicity
 _atom_site_fract_x
 _atom_site_fract_y
 _atom_site_fract_z
 _atom_site_fract_occupancy
 Ce  Ce1  1  0.00000  0.00000  0.00000  1
 Ce  Ce2  1  0.64580  0.14580  0.50000  1
 Ce  Ce3  1  0.35420  0.85420  0.50000  1
 Pd  Pd1  1  0.90298  0.40298  0.50000  1
 Pd  Pd2  1  0.09702  0.59702  0.50000  1
 Pd  Pd3  1  0.75013  0.75013  0.00000  1
 Pd  Pd4  1  0.24987  0.24987  0.00000  1
 Si  Si1  1  0.80447  0.30447  0.50000  1
 Si  Si2  1  0.19553  0.69553  0.50000  1
 Si  Si3  1  0.54776  0.54776  -0.00000  1
 Si  Si4  1  0.45224  0.45224  0.00000  1
