CIF file written using JARVIS-Tools package.
data_Tb2Al
_symmetry_space_group_name_H-M  'Pnma'
_cell_length_a       5.0883
_cell_length_b       6.53184
_cell_length_c       9.48645
_cell_angle_alpha    90
_cell_angle_beta     90
_cell_angle_gamma    90

_symmetry_Int_Tables_number  62
_chemical_formula_structural  Tb2Al
_chemical_formula_sum  Tb8Al4
_cell_volume  315.29114068030265
_cell_formula_units_Z  4
loop_
  _symmetry_equiv_pos_site_id
 _symmetry_equiv_pos_as_xyz
 1  'x, y, z'
loop_
 _atom_site_type_symbol
 _atom_site_label
 _atom_site_symmetry_multiplicity
 _atom_site_fract_x
 _atom_site_fract_y
 _atom_site_fract_z
 _atom_site_fract_occupancy
 Al  Al1  1  0.25000  0.29128  0.89751  1
 Al  Al2  1  0.25000  0.79128  0.60249  1
 Al  Al3  1  0.75000  0.70872  0.10249  1
 Al  Al4  1  0.75000  0.20872  0.39751  1
 Tb  Tb1  1  0.25000  0.81157  0.92613  1
 Tb  Tb2  1  0.25000  0.31157  0.57387  1
 Tb  Tb3  1  0.75000  0.18843  0.07387  1
 Tb  Tb4  1  0.75000  0.68843  0.42613  1
 Tb  Tb5  1  0.25000  0.97312  0.29108  1
 Tb  Tb6  1  0.25000  0.47312  0.20892  1
 Tb  Tb7  1  0.75000  0.02688  0.70892  1
 Tb  Tb8  1  0.75000  0.52688  0.79108  1
