CIF file written using JARVIS-Tools package.
data_KAgTeS3
_symmetry_space_group_name_H-M  'P2_1/c'
_cell_length_a       10.6808
_cell_length_b       7.30393
_cell_length_c       8.40777
_cell_angle_alpha    73.6782
_cell_angle_beta     90
_cell_angle_gamma    90

_symmetry_Int_Tables_number  14
_chemical_formula_structural  KAgTeS3
_chemical_formula_sum  K4Ag4Te4S2
_cell_volume  629.4700922695566
_cell_formula_units_Z  4
loop_
  _symmetry_equiv_pos_site_id
 _symmetry_equiv_pos_as_xyz
 1  'x, y, z'
loop_
 _atom_site_type_symbol
 _atom_site_label
 _atom_site_symmetry_multiplicity
 _atom_site_fract_x
 _atom_site_fract_y
 _atom_site_fract_z
 _atom_site_fract_occupancy
 Ag  Ag1  1  0.25373  0.91395  0.51809  1
 Ag  Ag2  1  0.74627  0.08605  0.48191  1
 Ag  Ag3  1  0.75373  0.08605  0.98191  1
 Ag  Ag4  1  0.24627  0.91395  0.01809  1
 K  K1  1  0.24716  0.48664  0.87939  1
 K  K2  1  0.75284  0.51336  0.12061  1
 K  K3  1  0.74716  0.51336  0.62061  1
 K  K4  1  0.25284  0.48664  0.37939  1
 S  S1  1  0.45292  0.71075  0.59927  1
 S  S2  1  0.76528  0.85444  0.28739  1
 S  S3  1  0.23472  0.14556  0.71261  1
 S  S4  1  0.26528  0.14556  0.21261  1
 S  S5  1  0.73472  0.85444  0.78739  1
 S  S6  1  0.45096  0.72208  0.04694  1
 S  S7  1  0.54904  0.27792  0.95306  1
 S  S8  1  0.04708  0.71075  0.09927  1
 S  S9  1  0.04904  0.72208  0.54694  1
 S  S10  1  0.95292  0.28925  0.90073  1
 S  S11  1  0.54708  0.28925  0.40073  1
 S  S12  1  0.95096  0.27792  0.45306  1
 Te  Te1  1  0.51006  0.91123  0.77388  1
 Te  Te2  1  0.98994  0.91123  0.27388  1
 Te  Te3  1  0.01006  0.08877  0.72612  1
 Te  Te4  1  0.48994  0.08877  0.22612  1
