CIF file written using JARVIS-Tools package.
data_ZrTiO4
_symmetry_space_group_name_H-M  'P2_12_12'
_cell_length_a       4.75353
_cell_length_b       5.12353
_cell_length_c       5.68386
_cell_angle_alpha    90
_cell_angle_beta     90
_cell_angle_gamma    90

_symmetry_Int_Tables_number  18
_chemical_formula_structural  ZrTiO4
_chemical_formula_sum  Zr2Ti2O8
_cell_volume  138.42949900999545
_cell_formula_units_Z  2
loop_
  _symmetry_equiv_pos_site_id
 _symmetry_equiv_pos_as_xyz
 1  'x, y, z'
loop_
 _atom_site_type_symbol
 _atom_site_label
 _atom_site_symmetry_multiplicity
 _atom_site_fract_x
 _atom_site_fract_y
 _atom_site_fract_z
 _atom_site_fract_occupancy
 O  O1  1  0.73808  0.17693  0.87475  1
 O  O2  1  0.76192  0.67693  0.12525  1
 O  O3  1  0.23808  0.32307  0.12525  1
 O  O4  1  0.26192  0.82307  0.87475  1
 O  O5  1  0.28204  0.33934  0.64888  1
 O  O6  1  0.21796  0.83934  0.35112  1
 O  O7  1  0.78204  0.16066  0.35112  1
 O  O8  1  0.71796  0.66066  0.64888  1
 Ti  Ti1  1  0.00000  0.00000  0.07015  1
 Ti  Ti2  1  0.50000  0.50000  0.92985  1
 Zr  Zr1  1  0.00000  0.50000  0.42221  1
 Zr  Zr2  1  0.50000  0.00000  0.57779  1
