CIF file written using JARVIS-Tools package.
data_BaCa2MgSi2O8
_symmetry_space_group_name_H-M  'P-3'
_cell_length_a       5.44899
_cell_length_b       5.44898
_cell_length_c       6.83802
_cell_angle_alpha    90
_cell_angle_beta     90
_cell_angle_gamma    120

_symmetry_Int_Tables_number  147
_chemical_formula_structural  BaCa2MgSi2O8
_chemical_formula_sum  BaCa2MgSi2O8
_cell_volume  175.8298701148111
_cell_formula_units_Z  1
loop_
  _symmetry_equiv_pos_site_id
 _symmetry_equiv_pos_as_xyz
 1  'x, y, z'
loop_
 _atom_site_type_symbol
 _atom_site_label
 _atom_site_symmetry_multiplicity
 _atom_site_fract_x
 _atom_site_fract_y
 _atom_site_fract_z
 _atom_site_fract_occupancy
 Ba  Ba1  1  0.00000  0.00000  0.50000  1
 Ca  Ca1  1  0.33333  0.66667  0.84109  1
 Ca  Ca2  1  0.66667  0.33333  0.15891  1
 Mg  Mg1  1  0.00000  0.00000  0.00000  1
 O  O1  1  0.33333  0.66667  0.50931  1
 O  O2  1  0.66667  0.33333  0.49069  1
 O  O3  1  0.64613  0.88657  0.17462  1
 O  O4  1  0.11343  0.75956  0.17462  1
 O  O5  1  0.24044  0.35387  0.17462  1
 O  O6  1  0.35387  0.11343  0.82538  1
 O  O7  1  0.88657  0.24044  0.82538  1
 O  O8  1  0.75956  0.64613  0.82538  1
 Si  Si1  1  0.33333  0.66667  0.27279  1
 Si  Si2  1  0.66667  0.33333  0.72721  1
