CIF file written using JARVIS-Tools package.
data_Li4MnCo2O7
_symmetry_space_group_name_H-M  'P1'
_cell_length_a       5.73153
_cell_length_b       6.38034
_cell_length_c       7.50162
_cell_angle_alpha    104.374
_cell_angle_beta     112.103
_cell_angle_gamma    103.701

_symmetry_Int_Tables_number  1
_chemical_formula_structural  Li4MnCo2O7
_chemical_formula_sum  Li8Mn2Co4O4
_cell_volume  228.9350080255307
_cell_formula_units_Z  2
loop_
  _symmetry_equiv_pos_site_id
 _symmetry_equiv_pos_as_xyz
 1  'x, y, z'
loop_
 _atom_site_type_symbol
 _atom_site_label
 _atom_site_symmetry_multiplicity
 _atom_site_fract_x
 _atom_site_fract_y
 _atom_site_fract_z
 _atom_site_fract_occupancy
 Co  Co1  1  0.71511  0.71253  0.57347  1
 Co  Co2  1  0.14630  0.14644  0.71638  1
 Co  Co3  1  0.43068  0.43054  0.14225  1
 Co  Co4  1  0.28572  0.28695  0.42996  1
 Li  Li1  1  0.56555  0.56237  0.85120  1
 Li  Li2  1  0.49802  0.99836  0.99446  1
 Li  Li3  1  0.07242  0.56365  0.85103  1
 Li  Li4  1  0.36051  0.85698  0.28802  1
 Li  Li5  1  0.78780  0.29250  0.43676  1
 Li  Li6  1  0.23151  0.70654  0.58300  1
 Li  Li7  1  0.63459  0.15463  0.71545  1
 Li  Li8  1  0.91350  0.42921  0.13098  1
 Mn  Mn1  1  0.99558  0.99531  0.99550  1
 Mn  Mn2  1  0.85051  0.85396  0.28308  1
 O  O1  1  0.90442  0.12882  0.21158  1
 O  O2  1  0.34501  0.55912  0.36311  1
 O  O3  1  0.77008  0.98951  0.50279  1
 O  O4  1  0.17923  0.40608  0.63359  1
 O  O5  1  0.37247  0.15416  0.20862  1
 O  O6  1  0.80576  0.58316  0.35353  1
 O  O7  1  0.08992  0.86553  0.78471  1
 O  O8  1  0.65942  0.43329  0.62711  1
 O  O9  1  0.51156  0.28499  0.93071  1
 O  O10  1  0.96769  0.73788  0.08310  1
 O  O11  1  0.05701  0.27845  0.93417  1
 O  O12  1  0.48477  0.71487  0.08906  1
 O  O13  1  0.22989  0.01076  0.49948  1
 O  O14  1  0.63494  0.86342  0.78687  1
