CIF file written using JARVIS-Tools package.
data_V3P4S12
_symmetry_space_group_name_H-M  'C2'
_cell_length_a       5.95381
_cell_length_b       5.95381
_cell_length_c       12.6733
_cell_angle_alpha    85.4122
_cell_angle_beta     85.4122
_cell_angle_gamma    120.563

_symmetry_Int_Tables_number  5
_chemical_formula_structural  V3P4S12
_chemical_formula_sum  V3P4S2
_cell_volume  381.76070960007746
_cell_formula_units_Z  1
loop_
  _symmetry_equiv_pos_site_id
 _symmetry_equiv_pos_as_xyz
 1  'x, y, z'
loop_
 _atom_site_type_symbol
 _atom_site_label
 _atom_site_symmetry_multiplicity
 _atom_site_fract_x
 _atom_site_fract_y
 _atom_site_fract_z
 _atom_site_fract_occupancy
 P  P1  1  0.96645  0.97251  0.08713  1
 P  P2  1  0.47126  0.46691  0.58772  1
 P  P3  1  0.53309  0.52874  0.41228  1
 P  P4  1  0.02749  0.03355  0.91287  1
 S  S1  1  0.00753  0.69645  0.87346  1
 S  S2  1  0.30355  -0.00753  0.12654  1
 S  S3  1  0.80265  0.45479  0.62399  1
 S  S4  1  0.89125  0.88657  0.37884  1
 S  S5  1  0.45902  0.79730  0.62517  1
 S  S6  1  0.92611  0.28098  0.12627  1
 S  S7  1  0.71902  0.07389  0.87373  1
 S  S8  1  0.38888  0.36694  0.87305  1
 S  S9  1  0.20270  0.54098  0.37483  1
 S  S10  1  0.63306  0.61112  0.12695  1
 S  S11  1  0.11343  0.10875  0.62116  1
 S  S12  1  0.54521  0.19735  0.37601  1
 V  V1  1  0.17374  0.82626  0.50000  1
 V  V2  1  0.67177  0.32823  0.00000  1
 V  V3  1  0.83101  0.16899  0.50000  1
