CIF file written using JARVIS-Tools package.
data_EuGe7Rh3
_symmetry_space_group_name_H-M  'R-3c'
_cell_length_a       8.3299
_cell_length_b       8.3299
_cell_length_c       8.3299
_cell_angle_alpha    57.2315
_cell_angle_beta     57.2315
_cell_angle_gamma    57.2315

_symmetry_Int_Tables_number  167
_chemical_formula_structural  EuGe7Rh3
_chemical_formula_sum  Eu2Ge4Rh6
_cell_volume  382.64065935900663
_cell_formula_units_Z  2
loop_
  _symmetry_equiv_pos_site_id
 _symmetry_equiv_pos_as_xyz
 1  'x, y, z'
loop_
 _atom_site_type_symbol
 _atom_site_label
 _atom_site_symmetry_multiplicity
 _atom_site_fract_x
 _atom_site_fract_y
 _atom_site_fract_z
 _atom_site_fract_occupancy
 Eu  Eu1  1  0.50000  0.50000  0.50000  1
 Eu  Eu2  1  0.00000  0.00000  0.00000  1
 Ge  Ge1  1  0.64845  0.83307  0.42475  1
 Ge  Ge2  1  0.35155  0.16693  0.57525  1
 Ge  Ge3  1  0.57525  0.35155  0.16693  1
 Ge  Ge4  1  0.16693  0.57525  0.35155  1
 Ge  Ge5  1  0.07525  0.66693  0.85155  1
 Ge  Ge6  1  0.66693  0.85155  0.07525  1
 Ge  Ge7  1  0.85155  0.07525  0.66693  1
 Ge  Ge8  1  0.42475  0.64845  0.83307  1
 Ge  Ge9  1  0.92475  0.33307  0.14845  1
 Ge  Ge10  1  0.14845  0.92475  0.33307  1
 Ge  Ge11  1  0.33307  0.14845  0.92475  1
 Ge  Ge12  1  0.25000  0.25000  0.25000  1
 Ge  Ge13  1  0.75000  0.75000  0.75000  1
 Ge  Ge14  1  0.83307  0.42475  0.64845  1
 Rh  Rh1  1  0.75000  0.06706  0.43294  1
 Rh  Rh2  1  0.43294  0.75000  0.06706  1
 Rh  Rh3  1  0.93294  0.56706  0.25000  1
 Rh  Rh4  1  0.25000  0.93294  0.56706  1
 Rh  Rh5  1  0.56706  0.25000  0.93294  1
 Rh  Rh6  1  0.06706  0.43294  0.75000  1
