CIF file written using JARVIS-Tools package.
data_Li6PBrO5
_symmetry_space_group_name_H-M  'F-43m'
_cell_length_a       5.86826
_cell_length_b       5.86826
_cell_length_c       5.86826
_cell_angle_alpha    60
_cell_angle_beta     60
_cell_angle_gamma    60

_symmetry_Int_Tables_number  216
_chemical_formula_structural  Li6PBrO5
_chemical_formula_sum  Li6PBrO5
_cell_volume  142.8936660484593
_cell_formula_units_Z  1
loop_
  _symmetry_equiv_pos_site_id
 _symmetry_equiv_pos_as_xyz
 1  'x, y, z'
loop_
 _atom_site_type_symbol
 _atom_site_label
 _atom_site_symmetry_multiplicity
 _atom_site_fract_x
 _atom_site_fract_y
 _atom_site_fract_z
 _atom_site_fract_occupancy
 Br  Br1  1  0.00000  0.00000  0.00000  1
 Li  Li1  1  0.98319  0.51681  0.98319  1
 Li  Li2  1  0.51681  0.98319  0.98319  1
 Li  Li3  1  0.51681  0.51681  0.98319  1
 Li  Li4  1  0.51681  0.98319  0.51681  1
 Li  Li5  1  0.98319  0.98319  0.51681  1
 Li  Li6  1  0.98319  0.51681  0.51681  1
 O  O1  1  0.82485  0.39172  0.39172  1
 O  O2  1  0.39172  0.82485  0.39172  1
 O  O3  1  0.39172  0.39172  0.39172  1
 O  O4  1  0.39172  0.39172  0.82485  1
 O  O5  1  0.75000  0.75000  0.75000  1
 P  P1  1  0.50000  0.50000  0.50000  1
