CIF file written using JARVIS-Tools package.
data_BaMn2P2O9
_symmetry_space_group_name_H-M  'C2'
_cell_length_a       5.1103
_cell_length_b       5.11029
_cell_length_c       8.51787
_cell_angle_alpha    85.8372
_cell_angle_beta     85.8372
_cell_angle_gamma    57.7554

_symmetry_Int_Tables_number  5
_chemical_formula_structural  BaMn2P2O9
_chemical_formula_sum  BaMn2P2O9
_cell_volume  187.4915446806146
_cell_formula_units_Z  1
loop_
  _symmetry_equiv_pos_site_id
 _symmetry_equiv_pos_as_xyz
 1  'x, y, z'
loop_
 _atom_site_type_symbol
 _atom_site_label
 _atom_site_symmetry_multiplicity
 _atom_site_fract_x
 _atom_site_fract_y
 _atom_site_fract_z
 _atom_site_fract_occupancy
 Ba  Ba1  1  0.90674  0.09326  -0.00000  1
 Mn  Mn1  1  0.25686  0.45076  0.61700  1
 Mn  Mn2  1  0.54924  0.74314  0.38300  1
 O  O1  1  0.58187  0.41813  0.50000  1
 O  O2  1  0.03940  0.53301  0.41749  1
 O  O3  1  0.46699  0.96060  0.58251  1
 O  O4  1  0.35978  0.65843  0.21547  1
 O  O5  1  0.34157  0.64022  0.78453  1
 O  O6  1  0.99968  0.51152  0.12872  1
 O  O7  1  0.48848  0.00032  0.87128  1
 O  O8  1  0.89736  0.49843  0.74125  1
 O  O9  1  0.50157  0.10264  0.25875  1
 P  P1  1  0.22679  0.44433  0.25409  1
 P  P2  1  0.55567  0.77321  0.74591  1
