CIF file written using JARVIS-Tools package.
data_Na3Eu2Ge2Se6
_symmetry_space_group_name_H-M  'C2/m'
_cell_length_a       7.34612
_cell_length_b       7.34611
_cell_length_c       7.63313
_cell_angle_alpha    80.2805
_cell_angle_beta     80.2806
_cell_angle_gamma    119.28

_symmetry_Int_Tables_number  12
_chemical_formula_structural  Na3Eu2Ge2Se6
_chemical_formula_sum  Na3Eu2Ge2Se6
_cell_volume  338.66188134411243
_cell_formula_units_Z  1
loop_
  _symmetry_equiv_pos_site_id
 _symmetry_equiv_pos_as_xyz
 1  'x, y, z'
loop_
 _atom_site_type_symbol
 _atom_site_label
 _atom_site_symmetry_multiplicity
 _atom_site_fract_x
 _atom_site_fract_y
 _atom_site_fract_z
 _atom_site_fract_occupancy
 Eu  Eu1  1  0.83338  0.16662  0.50000  1
 Eu  Eu2  1  0.16662  0.83338  0.50000  1
 Ge  Ge1  1  0.55914  0.55914  0.32073  1
 Ge  Ge2  1  0.44086  0.44086  0.67927  1
 Na  Na1  1  0.66607  0.33393  0.00000  1
 Na  Na2  1  0.33393  0.66607  -0.00000  1
 Na  Na3  1  0.00000  0.00000  0.00000  1
 Se  Se1  1  0.21914  0.21914  0.25342  1
 Se  Se2  1  0.78086  0.78086  0.74658  1
 Se  Se3  1  0.58265  0.94072  0.26158  1
 Se  Se4  1  0.41735  0.05928  0.73842  1
 Se  Se5  1  0.05928  0.41735  0.73842  1
 Se  Se6  1  0.94072  0.58265  0.26158  1
