CIF file written using JARVIS-Tools package.
data_TaTiFe4
_symmetry_space_group_name_H-M  'P-3m1'
_cell_length_a       4.70767
_cell_length_b       4.70767
_cell_length_c       7.76405
_cell_angle_alpha    90
_cell_angle_beta     90
_cell_angle_gamma    119.997

_symmetry_Int_Tables_number  164
_chemical_formula_structural  TaTiFe4
_chemical_formula_sum  Ta2Ti2Fe8
_cell_volume  149.01940238699257
_cell_formula_units_Z  2
loop_
  _symmetry_equiv_pos_site_id
 _symmetry_equiv_pos_as_xyz
 1  'x, y, z'
loop_
 _atom_site_type_symbol
 _atom_site_label
 _atom_site_symmetry_multiplicity
 _atom_site_fract_x
 _atom_site_fract_y
 _atom_site_fract_z
 _atom_site_fract_occupancy
 Fe  Fe1  1  0.00000  0.00000  0.50000  1
 Fe  Fe2  1  -0.00000  -0.00000  -0.00000  1
 Fe  Fe3  1  0.17087  0.34174  0.75160  1
 Fe  Fe4  1  0.17088  0.82912  0.75160  1
 Fe  Fe5  1  0.65826  0.82913  0.75160  1
 Fe  Fe6  1  0.82913  0.65826  0.24840  1
 Fe  Fe7  1  0.82912  0.17088  0.24840  1
 Fe  Fe8  1  0.34174  0.17087  0.24840  1
 Ta  Ta1  1  0.66667  0.33334  0.57109  1
 Ta  Ta2  1  0.33334  0.66667  0.42891  1
 Ti  Ti1  1  0.33333  0.66666  0.06020  1
 Ti  Ti2  1  0.66666  0.33333  0.93980  1
