CIF file written using JARVIS-Tools package.
data_LaMo6S8
_symmetry_space_group_name_H-M  'R-3'
_cell_length_a       6.55989
_cell_length_b       6.55989
_cell_length_c       6.55989
_cell_angle_alpha    88.7274
_cell_angle_beta     88.7274
_cell_angle_gamma    88.7275

_symmetry_Int_Tables_number  148
_chemical_formula_structural  LaMo6S8
_chemical_formula_sum  LaMo6S8
_cell_volume  282.07948529200274
_cell_formula_units_Z  1
loop_
  _symmetry_equiv_pos_site_id
 _symmetry_equiv_pos_as_xyz
 1  'x, y, z'
loop_
 _atom_site_type_symbol
 _atom_site_label
 _atom_site_symmetry_multiplicity
 _atom_site_fract_x
 _atom_site_fract_y
 _atom_site_fract_z
 _atom_site_fract_occupancy
 La  La1  1  0.00000  0.00000  0.00000  1
 Mo  Mo1  1  0.43689  0.57999  0.77182  1
 Mo  Mo2  1  0.77182  0.43689  0.57999  1
 Mo  Mo3  1  0.57999  0.77182  0.43689  1
 Mo  Mo4  1  0.56311  0.42001  0.22818  1
 Mo  Mo5  1  0.22818  0.56311  0.42001  1
 Mo  Mo6  1  0.42001  0.22818  0.56311  1
 S  S1  1  0.75587  0.75587  0.75587  1
 S  S2  1  0.24413  0.24413  0.24413  1
 S  S3  1  0.25026  0.87491  0.62364  1
 S  S4  1  0.62364  0.25026  0.87491  1
 S  S5  1  0.87491  0.62364  0.25026  1
 S  S6  1  0.74974  0.12509  0.37636  1
 S  S7  1  0.37636  0.74974  0.12509  1
 S  S8  1  0.12509  0.37636  0.74974  1
