CIF file written using JARVIS-Tools package.
data_Sr7CaIr2O12
_symmetry_space_group_name_H-M  'R32'
_cell_length_a       6.86801
_cell_length_b       6.86801
_cell_length_c       6.86801
_cell_angle_alpha    90.7227
_cell_angle_beta     90.7227
_cell_angle_gamma    90.7227

_symmetry_Int_Tables_number  155
_chemical_formula_structural  Sr7CaIr2O12
_chemical_formula_sum  Sr7CaIr2O2
_cell_volume  323.88252498877677
_cell_formula_units_Z  1
loop_
  _symmetry_equiv_pos_site_id
 _symmetry_equiv_pos_as_xyz
 1  'x, y, z'
loop_
 _atom_site_type_symbol
 _atom_site_label
 _atom_site_symmetry_multiplicity
 _atom_site_fract_x
 _atom_site_fract_y
 _atom_site_fract_z
 _atom_site_fract_occupancy
 Ca  Ca1  1  0.50000  0.50000  0.50000  1
 Ir  Ir1  1  0.74640  0.74640  0.74640  1
 Ir  Ir2  1  0.25360  0.25360  0.25360  1
 O  O1  1  0.33241  0.20081  0.53987  1
 O  O2  1  0.53987  0.33241  0.20081  1
 O  O3  1  0.66759  0.46013  0.79919  1
 O  O4  1  0.79919  0.66759  0.46013  1
 O  O5  1  0.17651  0.31006  0.96632  1
 O  O6  1  0.46013  0.79919  0.66759  1
 O  O7  1  0.31006  0.96632  0.17651  1
 O  O8  1  0.03368  0.68994  0.82349  1
 O  O9  1  0.82349  0.03368  0.68994  1
 O  O10  1  0.20081  0.53987  0.33241  1
 O  O11  1  0.96632  0.17651  0.31006  1
 O  O12  1  0.68994  0.82349  0.03368  1
 Sr  Sr1  1  0.00000  0.00000  0.00000  1
 Sr  Sr2  1  0.36600  0.63400  0.00000  1
 Sr  Sr3  1  0.63400  -0.00000  0.36600  1
 Sr  Sr4  1  0.00000  0.36600  0.63400  1
 Sr  Sr5  1  0.86400  0.50000  0.13600  1
 Sr  Sr6  1  0.50000  0.13600  0.86400  1
 Sr  Sr7  1  0.13600  0.86400  0.50000  1
