CIF file written using JARVIS-Tools package.
data_Sr3Sn3Au8
_symmetry_space_group_name_H-M  'C2/m'
_cell_length_a       9.0674
_cell_length_b       9.0674
_cell_length_c       9.7962
_cell_angle_alpha    57.0269
_cell_angle_beta     57.0269
_cell_angle_gamma    30.373

_symmetry_Int_Tables_number  12
_chemical_formula_structural  Sr3Sn3Au8
_chemical_formula_sum  Sr3Sn3Au8
_cell_volume  336.30789619226545
_cell_formula_units_Z  1
loop_
  _symmetry_equiv_pos_site_id
 _symmetry_equiv_pos_as_xyz
 1  'x, y, z'
loop_
 _atom_site_type_symbol
 _atom_site_label
 _atom_site_symmetry_multiplicity
 _atom_site_fract_x
 _atom_site_fract_y
 _atom_site_fract_z
 _atom_site_fract_occupancy
 Au  Au1  1  0.87410  0.87410  0.85358  1
 Au  Au2  1  0.12590  0.12590  0.14642  1
 Au  Au3  1  0.13614  0.13614  0.57399  1
 Au  Au4  1  0.86386  0.86386  0.42601  1
 Au  Au5  1  0.49377  0.49377  0.31862  1
 Au  Au6  1  0.50623  0.50623  0.68138  1
 Au  Au7  1  0.64906  0.64906  0.97418  1
 Au  Au8  1  0.35094  0.35094  0.02582  1
 Sn  Sn1  1  -0.00000  0.00000  0.50000  1
 Sn  Sn2  1  0.32825  0.32825  0.32357  1
 Sn  Sn3  1  0.67175  0.67175  0.67643  1
 Sr  Sr1  1  0.70062  0.70062  0.26426  1
 Sr  Sr2  1  0.29938  0.29938  0.73574  1
 Sr  Sr3  1  0.00000  0.00000  0.00000  1
