CIF file written using JARVIS-Tools package.
data_MnPO4F
_symmetry_space_group_name_H-M  'P-1'
_cell_length_a       5.0191
_cell_length_b       5.06615
_cell_length_c       7.09572
_cell_angle_alpha    109.912
_cell_angle_beta     106.856
_cell_angle_gamma    96.3038

_symmetry_Int_Tables_number  2
_chemical_formula_structural  MnPO4F
_chemical_formula_sum  Mn2P2O8F2
_cell_volume  157.93063035845185
_cell_formula_units_Z  2
loop_
  _symmetry_equiv_pos_site_id
 _symmetry_equiv_pos_as_xyz
 1  'x, y, z'
loop_
 _atom_site_type_symbol
 _atom_site_label
 _atom_site_symmetry_multiplicity
 _atom_site_fract_x
 _atom_site_fract_y
 _atom_site_fract_z
 _atom_site_fract_occupancy
 F  F1  1  0.14242  0.31715  0.27007  1
 F  F2  1  0.85758  0.68285  0.72993  1
 Mn  Mn1  1  0.00000  0.00000  0.00000  1
 Mn  Mn2  1  0.50000  0.50000  0.50000  1
 O  O1  1  0.23154  0.79144  0.12040  1
 O  O2  1  0.70628  0.84723  0.06862  1
 O  O3  1  0.65803  0.18185  0.41229  1
 O  O4  1  0.64617  0.65272  0.33352  1
 O  O5  1  0.29372  0.15277  0.93138  1
 O  O6  1  0.34197  0.81815  0.58771  1
 O  O7  1  0.35383  0.34728  0.66648  1
 O  O8  1  0.76846  0.20856  0.87960  1
 P  P1  1  0.43976  0.12648  0.76468  1
 P  P2  1  0.56024  0.87352  0.23532  1
