CIF file written using JARVIS-Tools package.
data_Sr3Ti2Mn2BiO12
_symmetry_space_group_name_H-M  'R-3m'
_cell_length_a       9.50297
_cell_length_b       9.50297
_cell_length_c       9.50298
_cell_angle_alpha    33.686
_cell_angle_beta     33.686
_cell_angle_gamma    33.686

_symmetry_Int_Tables_number  166
_chemical_formula_structural  Sr3Ti2Mn2BiO12
_chemical_formula_sum  Sr3Ti2Mn2BiO2
_cell_volume  235.20016402268877
_cell_formula_units_Z  1
loop_
  _symmetry_equiv_pos_site_id
 _symmetry_equiv_pos_as_xyz
 1  'x, y, z'
loop_
 _atom_site_type_symbol
 _atom_site_label
 _atom_site_symmetry_multiplicity
 _atom_site_fract_x
 _atom_site_fract_y
 _atom_site_fract_z
 _atom_site_fract_occupancy
 Bi  Bi1  1  0.00000  0.00000  0.00000  1
 Mn  Mn1  1  0.62524  0.62524  0.62524  1
 Mn  Mn2  1  0.37476  0.37476  0.37476  1
 O  O1  1  -0.00000  0.50000  0.50000  1
 O  O2  1  0.24730  0.74978  0.24730  1
 O  O3  1  0.74978  0.24730  0.24730  1
 O  O4  1  -0.00000  0.50000  -0.00000  1
 O  O5  1  0.75270  0.25022  0.75270  1
 O  O6  1  0.50000  0.00000  0.50000  1
 O  O7  1  0.75270  0.75270  0.25022  1
 O  O8  1  0.24730  0.24730  0.74978  1
 O  O9  1  0.50000  0.00000  0.00000  1
 O  O10  1  0.50000  0.50000  0.00000  1
 O  O11  1  0.25022  0.75270  0.75270  1
 O  O12  1  -0.00000  -0.00000  0.50000  1
 Sr  Sr1  1  0.25215  0.25215  0.25215  1
 Sr  Sr2  1  0.50000  0.50000  0.50000  1
 Sr  Sr3  1  0.74785  0.74785  0.74785  1
 Ti  Ti1  1  0.87553  0.87553  0.87553  1
 Ti  Ti2  1  0.12447  0.12447  0.12447  1
