CIF file written using JARVIS-Tools package.
data_Pr3Pd4
_symmetry_space_group_name_H-M  'R-3'
_cell_length_a       8.19714
_cell_length_b       8.19714
_cell_length_c       8.19714
_cell_angle_alpha    114.484
_cell_angle_beta     114.484
_cell_angle_gamma    114.484

_symmetry_Int_Tables_number  148
_chemical_formula_structural  Pr3Pd4
_chemical_formula_sum  Pr6Pd8
_cell_volume  322.2771104614502
_cell_formula_units_Z  2
loop_
  _symmetry_equiv_pos_site_id
 _symmetry_equiv_pos_as_xyz
 1  'x, y, z'
loop_
 _atom_site_type_symbol
 _atom_site_label
 _atom_site_symmetry_multiplicity
 _atom_site_fract_x
 _atom_site_fract_y
 _atom_site_fract_z
 _atom_site_fract_occupancy
 Pd  Pd1  1  0.00000  0.00000  0.00000  1
 Pd  Pd2  1  0.50000  0.50000  0.50000  1
 Pd  Pd3  1  0.22317  0.05944  0.55452  1
 Pd  Pd4  1  0.05944  0.55452  0.22317  1
 Pd  Pd5  1  0.55452  0.22317  0.05944  1
 Pd  Pd6  1  0.77683  0.94056  0.44548  1
 Pd  Pd7  1  0.94056  0.44548  0.77683  1
 Pd  Pd8  1  0.44548  0.77683  0.94056  1
 Pr  Pr1  1  0.40465  0.02759  0.27948  1
 Pr  Pr2  1  0.02759  0.27948  0.40465  1
 Pr  Pr3  1  0.27948  0.40465  0.02759  1
 Pr  Pr4  1  0.59535  0.97241  0.72052  1
 Pr  Pr5  1  0.97241  0.72052  0.59535  1
 Pr  Pr6  1  0.72052  0.59535  0.97241  1
