CIF file written using JARVIS-Tools package.
data_Cu2AgSe2O10
_symmetry_space_group_name_H-M  'C2/m'
_cell_length_a       5.55359
_cell_length_b       5.55359
_cell_length_c       7.88906
_cell_angle_alpha    64.7753
_cell_angle_beta     64.7753
_cell_angle_gamma    65.5424

_symmetry_Int_Tables_number  12
_chemical_formula_structural  Cu2AgSe2O10
_chemical_formula_sum  Cu2AgSe2O0
_cell_volume  190.92810535013408
_cell_formula_units_Z  1
loop_
  _symmetry_equiv_pos_site_id
 _symmetry_equiv_pos_as_xyz
 1  'x, y, z'
loop_
 _atom_site_type_symbol
 _atom_site_label
 _atom_site_symmetry_multiplicity
 _atom_site_fract_x
 _atom_site_fract_y
 _atom_site_fract_z
 _atom_site_fract_occupancy
 Ag  Ag1  1  0.50000  0.50000  0.50000  1
 Cu  Cu1  1  -0.00000  0.50000  -0.00000  1
 Cu  Cu2  1  0.50000  0.00000  -0.00000  1
 O  O1  1  0.17078  0.17078  0.83091  1
 O  O2  1  0.82922  0.82922  0.16909  1
 O  O3  1  0.21498  0.21498  0.45776  1
 O  O4  1  0.78502  0.78502  0.54224  1
 O  O5  1  0.71995  0.18997  0.74922  1
 O  O6  1  0.18997  0.71995  0.74922  1
 O  O7  1  0.28005  0.81003  0.25078  1
 O  O8  1  0.81003  0.28005  0.25078  1
 O  O9  1  0.67425  0.67425  0.94721  1
 O  O10  1  0.32575  0.32575  0.05279  1
 Se  Se1  1  0.08074  0.08074  0.69455  1
 Se  Se2  1  0.91926  0.91926  0.30545  1
