CIF file written using JARVIS-Tools package.
data_Nb2TlO7
_symmetry_space_group_name_H-M  'Imma'
_cell_length_a       7.56288
_cell_length_b       7.56288
_cell_length_c       7.56288
_cell_angle_alpha    121.597
_cell_angle_beta     120.14
_cell_angle_gamma    88.5072

_symmetry_Int_Tables_number  74
_chemical_formula_structural  Nb2TlO7
_chemical_formula_sum  Nb4Tl2O4
_cell_volume  301.68765777614755
_cell_formula_units_Z  2
loop_
  _symmetry_equiv_pos_site_id
 _symmetry_equiv_pos_as_xyz
 1  'x, y, z'
loop_
 _atom_site_type_symbol
 _atom_site_label
 _atom_site_symmetry_multiplicity
 _atom_site_fract_x
 _atom_site_fract_y
 _atom_site_fract_z
 _atom_site_fract_occupancy
 Nb  Nb1  1  0.50000  0.00000  -0.00000  1
 Nb  Nb2  1  0.50000  0.50000  0.50000  1
 Nb  Nb3  1  0.50000  -0.00000  0.50000  1
 Nb  Nb4  1  0.00000  0.00000  0.00000  1
 O  O1  1  0.81030  0.06030  0.75000  1
 O  O2  1  0.43732  0.68732  0.75000  1
 O  O3  1  0.81348  0.68597  0.75797  1
 O  O4  1  0.91029  0.66029  0.25000  1
 O  O5  1  0.81348  0.05551  0.12751  1
 O  O6  1  0.42801  0.05551  0.74203  1
 O  O7  1  0.18970  0.93970  0.25000  1
 O  O8  1  0.18652  0.31403  0.24203  1
 O  O9  1  0.42801  0.68597  0.37249  1
 O  O10  1  0.57199  0.94449  0.25797  1
 O  O11  1  0.18652  0.94449  0.87249  1
 O  O12  1  0.57199  0.31403  0.62751  1
 O  O13  1  0.56268  0.31268  0.25000  1
 O  O14  1  0.08971  0.33971  0.75000  1
 Tl  Tl1  1  -0.00000  -0.00000  0.50000  1
 Tl  Tl2  1  -0.00000  0.50000  -0.00000  1
