CIF file written using JARVIS-Tools package.
data_NaCaSiO4
_symmetry_space_group_name_H-M  'P2_1/m'
_cell_length_a       7.13343
_cell_length_b       5.32999
_cell_length_c       5.37626
_cell_angle_alpha    63.77
_cell_angle_beta     90
_cell_angle_gamma    90

_symmetry_Int_Tables_number  11
_chemical_formula_structural  NaCaSiO4
_chemical_formula_sum  Na2Ca2Si2O8
_cell_volume  183.36222037822697
_cell_formula_units_Z  2
loop_
  _symmetry_equiv_pos_site_id
 _symmetry_equiv_pos_as_xyz
 1  'x, y, z'
loop_
 _atom_site_type_symbol
 _atom_site_label
 _atom_site_symmetry_multiplicity
 _atom_site_fract_x
 _atom_site_fract_y
 _atom_site_fract_z
 _atom_site_fract_occupancy
 Ca  Ca1  1  0.50000  0.00000  0.00000  1
 Ca  Ca2  1  0.00000  0.00000  0.00000  1
 Na  Na1  1  0.75000  0.68398  0.68964  1
 Na  Na2  1  0.25000  0.31602  0.31036  1
 O  O1  1  0.25000  0.28816  0.75603  1
 O  O2  1  0.75000  0.71184  0.24397  1
 O  O3  1  0.75000  0.19566  0.67817  1
 O  O4  1  0.25000  0.80434  0.32183  1
 O  O5  1  0.43971  0.70937  0.78382  1
 O  O6  1  0.93971  0.29063  0.21618  1
 O  O7  1  0.56029  0.29063  0.21618  1
 O  O8  1  0.06029  0.70937  0.78382  1
 Si  Si1  1  0.25000  0.62422  0.65945  1
 Si  Si2  1  0.75000  0.37578  0.34055  1
