CIF file written using JARVIS-Tools package.
data_HoNi4P2
_symmetry_space_group_name_H-M  'P4_2/mnm'
_cell_length_a       7.08211
_cell_length_b       7.08211
_cell_length_c       3.59991
_cell_angle_alpha    90
_cell_angle_beta     90
_cell_angle_gamma    90

_symmetry_Int_Tables_number  136
_chemical_formula_structural  HoNi4P2
_chemical_formula_sum  Ho2Ni8P4
_cell_volume  180.55848066430804
_cell_formula_units_Z  2
loop_
  _symmetry_equiv_pos_site_id
 _symmetry_equiv_pos_as_xyz
 1  'x, y, z'
loop_
 _atom_site_type_symbol
 _atom_site_label
 _atom_site_symmetry_multiplicity
 _atom_site_fract_x
 _atom_site_fract_y
 _atom_site_fract_z
 _atom_site_fract_occupancy
 Ho  Ho1  1  0.50000  0.50000  0.00000  1
 Ho  Ho2  1  0.00000  0.00000  0.50000  1
 Ni  Ni1  1  0.58387  0.16398  0.50000  1
 Ni  Ni2  1  0.41613  0.83602  0.50000  1
 Ni  Ni3  1  0.08387  0.33602  0.00000  1
 Ni  Ni4  1  0.91613  0.66398  0.00000  1
 Ni  Ni5  1  0.16398  0.58387  0.50000  1
 Ni  Ni6  1  0.83602  0.41613  0.50000  1
 Ni  Ni7  1  0.33602  0.08387  0.00000  1
 Ni  Ni8  1  0.66398  0.91613  0.00000  1
 P  P1  1  0.72014  0.72014  0.50000  1
 P  P2  1  0.27986  0.27986  0.50000  1
 P  P3  1  0.22014  0.77986  0.00000  1
 P  P4  1  0.77986  0.22014  0.00000  1
