CIF file written using JARVIS-Tools package.
data_MgFe4CoO8
_symmetry_space_group_name_H-M  'R3m'
_cell_length_a       5.84054
_cell_length_b       5.84054
_cell_length_c       5.84054
_cell_angle_alpha    57.4946
_cell_angle_beta     57.4946
_cell_angle_gamma    57.4946

_symmetry_Int_Tables_number  160
_chemical_formula_structural  MgFe4CoO8
_chemical_formula_sum  MgFe4CoO8
_cell_volume  132.76034960406008
_cell_formula_units_Z  1
loop_
  _symmetry_equiv_pos_site_id
 _symmetry_equiv_pos_as_xyz
 1  'x, y, z'
loop_
 _atom_site_type_symbol
 _atom_site_label
 _atom_site_symmetry_multiplicity
 _atom_site_fract_x
 _atom_site_fract_y
 _atom_site_fract_z
 _atom_site_fract_occupancy
 Co  Co1  1  0.37064  0.37064  0.37064  1
 Fe  Fe1  1  0.62684  0.62684  0.62684  1
 Fe  Fe2  1  0.50292  -0.00222  -0.00222  1
 Fe  Fe3  1  -0.00222  -0.00222  0.50292  1
 Fe  Fe4  1  -0.00222  0.50292  -0.00222  1
 Mg  Mg1  1  0.00138  0.00138  0.00138  1
 O  O1  1  0.23057  0.74991  0.74991  1
 O  O2  1  0.74991  0.74991  0.23057  1
 O  O3  1  0.74991  0.23057  0.74991  1
 O  O4  1  0.75254  0.75254  0.75254  1
 O  O5  1  0.77410  0.25140  0.25140  1
 O  O6  1  0.25140  0.25140  0.77410  1
 O  O7  1  0.25140  0.77410  0.25140  1
 O  O8  1  0.24284  0.24284  0.24284  1
