CIF file written using JARVIS-Tools package.
data_TiMo6Se8
_symmetry_space_group_name_H-M  'R-3'
_cell_length_a       6.66312
_cell_length_b       6.66312
_cell_length_c       6.66312
_cell_angle_alpha    90.5581
_cell_angle_beta     90.558
_cell_angle_gamma    90.558

_symmetry_Int_Tables_number  148
_chemical_formula_structural  TiMo6Se8
_chemical_formula_sum  TiMo6Se8
_cell_volume  295.7815805102564
_cell_formula_units_Z  1
loop_
  _symmetry_equiv_pos_site_id
 _symmetry_equiv_pos_as_xyz
 1  'x, y, z'
loop_
 _atom_site_type_symbol
 _atom_site_label
 _atom_site_symmetry_multiplicity
 _atom_site_fract_x
 _atom_site_fract_y
 _atom_site_fract_z
 _atom_site_fract_occupancy
 Mo  Mo1  1  0.44717  0.77215  0.57738  1
 Mo  Mo2  1  0.55283  0.22785  0.42262  1
 Mo  Mo3  1  0.77215  0.57738  0.44717  1
 Mo  Mo4  1  0.22785  0.42262  0.55283  1
 Mo  Mo5  1  0.57738  0.44717  0.77215  1
 Mo  Mo6  1  0.42262  0.55283  0.22785  1
 Se  Se1  1  0.63959  0.87604  0.23908  1
 Se  Se2  1  0.36041  0.12396  0.76092  1
 Se  Se3  1  0.77665  0.77665  0.77665  1
 Se  Se4  1  0.22335  0.22335  0.22335  1
 Se  Se5  1  0.23908  0.63959  0.87604  1
 Se  Se6  1  0.76092  0.36041  0.12396  1
 Se  Se7  1  0.87604  0.23908  0.63959  1
 Se  Se8  1  0.12396  0.76092  0.36041  1
 Ti  Ti1  1  0.00000  0.00000  0.00000  1
