CIF file written using JARVIS-Tools package.
data_La3NdGa4O12
_symmetry_space_group_name_H-M  'Pm'
_cell_length_a       7.83211
_cell_length_b       5.55784
_cell_length_c       5.53138
_cell_angle_alpha    89.9123
_cell_angle_beta     90
_cell_angle_gamma    90

_symmetry_Int_Tables_number  6
_chemical_formula_structural  La3NdGa4O12
_chemical_formula_sum  La3NdGa4O2
_cell_volume  240.77863571875454
_cell_formula_units_Z  1
loop_
  _symmetry_equiv_pos_site_id
 _symmetry_equiv_pos_as_xyz
 1  'x, y, z'
loop_
 _atom_site_type_symbol
 _atom_site_label
 _atom_site_symmetry_multiplicity
 _atom_site_fract_x
 _atom_site_fract_y
 _atom_site_fract_z
 _atom_site_fract_occupancy
 Ga  Ga1  1  0.24903  0.50191  0.49975  1
 Ga  Ga2  1  0.75137  0.99927  0.00058  1
 Ga  Ga3  1  0.75097  0.50191  0.49975  1
 Ga  Ga4  1  0.24863  0.99927  0.00058  1
 La  La1  1  0.00000  0.53274  0.99340  1
 La  La2  1  0.50000  0.96957  0.49325  1
 La  La3  1  0.50000  0.46638  0.00784  1
 Nd  Nd1  1  0.00000  0.04129  0.50963  1
 O  O1  1  0.00000  0.48086  0.42582  1
 O  O2  1  0.79348  0.78698  0.71337  1
 O  O3  1  0.50000  0.51357  0.57452  1
 O  O4  1  0.50000  0.01227  0.92668  1
 O  O5  1  0.00000  0.98626  0.08282  1
 O  O6  1  0.28841  0.21506  0.28412  1
 O  O7  1  0.71159  0.21506  0.28412  1
 O  O8  1  0.28988  0.71376  0.21422  1
 O  O9  1  0.20652  0.78698  0.71337  1
 O  O10  1  0.71012  0.71376  0.21422  1
 O  O11  1  0.79194  0.28154  0.78097  1
 O  O12  1  0.20806  0.28154  0.78097  1
