CIF file written using JARVIS-Tools package.
data_FeCuAs2PbO10
_symmetry_space_group_name_H-M  'P-1'
_cell_length_a       5.16858
_cell_length_b       5.69723
_cell_length_c       7.79168
_cell_angle_alpha    109.941
_cell_angle_beta     92.8881
_cell_angle_gamma    111.957

_symmetry_Int_Tables_number  2
_chemical_formula_structural  FeCuAs2PbO10
_chemical_formula_sum  FeCuAs2PbO0
_cell_volume  195.8285301815392
_cell_formula_units_Z  1
loop_
  _symmetry_equiv_pos_site_id
 _symmetry_equiv_pos_as_xyz
 1  'x, y, z'
loop_
 _atom_site_type_symbol
 _atom_site_label
 _atom_site_symmetry_multiplicity
 _atom_site_fract_x
 _atom_site_fract_y
 _atom_site_fract_z
 _atom_site_fract_occupancy
 As  As1  1  0.59705  0.23606  0.77599  1
 As  As2  1  0.40295  0.76394  0.22401  1
 Cu  Cu1  1  0.50000  0.50000  0.50000  1
 Fe  Fe1  1  0.00000  0.00000  0.50000  1
 O  O1  1  0.85265  0.64540  0.43563  1
 O  O2  1  0.14735  0.35460  0.56437  1
 O  O3  1  0.70053  -0.00995  0.62946  1
 O  O4  1  0.29947  0.00995  0.37054  1
 O  O5  1  0.77330  0.95233  0.27602  1
 O  O6  1  0.22670  0.04767  0.72398  1
 O  O7  1  0.30779  0.46952  0.27189  1
 O  O8  1  0.69221  0.53048  0.72811  1
 O  O9  1  0.71188  0.29574  -0.00102  1
 O  O10  1  0.28812  0.70426  0.00102  1
 Pb  Pb1  1  0.00000  0.00000  0.00000  1
