CIF file written using JARVIS-Tools package.
data_LaCuPbS3
_symmetry_space_group_name_H-M  'Pnma'
_cell_length_a       4.1453
_cell_length_b       8.10297
_cell_length_c       15.9779
_cell_angle_alpha    90
_cell_angle_beta     90
_cell_angle_gamma    90

_symmetry_Int_Tables_number  62
_chemical_formula_structural  LaCuPbS3
_chemical_formula_sum  La4Cu4Pb4S2
_cell_volume  536.6843982072825
_cell_formula_units_Z  4
loop_
  _symmetry_equiv_pos_site_id
 _symmetry_equiv_pos_as_xyz
 1  'x, y, z'
loop_
 _atom_site_type_symbol
 _atom_site_label
 _atom_site_symmetry_multiplicity
 _atom_site_fract_x
 _atom_site_fract_y
 _atom_site_fract_z
 _atom_site_fract_occupancy
 Cu  Cu1  1  0.25000  0.12617  0.63108  1
 Cu  Cu2  1  0.25000  0.62617  0.86892  1
 Cu  Cu3  1  0.75000  0.87383  0.36892  1
 Cu  Cu4  1  0.75000  0.37383  0.13108  1
 La  La1  1  0.25000  0.24990  0.95997  1
 La  La2  1  0.25000  0.74990  0.54003  1
 La  La3  1  0.75000  0.75010  0.04003  1
 La  La4  1  0.75000  0.25010  0.45997  1
 Pb  Pb1  1  0.25000  0.08648  0.21997  1
 Pb  Pb2  1  0.25000  0.58648  0.28003  1
 Pb  Pb3  1  0.75000  0.91352  0.78003  1
 Pb  Pb4  1  0.75000  0.41352  0.71997  1
 S  S1  1  0.25000  0.51043  0.09796  1
 S  S2  1  0.75000  0.98957  0.59796  1
 S  S3  1  0.25000  0.18175  0.77872  1
 S  S4  1  0.25000  0.68175  0.72128  1
 S  S5  1  0.75000  0.81825  0.22128  1
 S  S6  1  0.75000  0.31825  0.27872  1
 S  S7  1  0.25000  0.38009  0.56305  1
 S  S8  1  0.25000  0.88009  0.93695  1
 S  S9  1  0.75000  0.61991  0.43695  1
 S  S10  1  0.75000  0.11991  0.06305  1
 S  S11  1  0.25000  0.01043  0.40204  1
 S  S12  1  0.75000  0.48957  0.90204  1
