CIF file written using JARVIS-Tools package.
data_Ho2FeSbO7
_symmetry_space_group_name_H-M  'Imma'
_cell_length_a       7.16285
_cell_length_b       7.16285
_cell_length_c       7.16285
_cell_angle_alpha    120.365
_cell_angle_beta     119.269
_cell_angle_gamma    90.3199

_symmetry_Int_Tables_number  74
_chemical_formula_structural  Ho2FeSbO7
_chemical_formula_sum  Ho4Fe2Sb2O4
_cell_volume  260.54672964212807
_cell_formula_units_Z  2
loop_
  _symmetry_equiv_pos_site_id
 _symmetry_equiv_pos_as_xyz
 1  'x, y, z'
loop_
 _atom_site_type_symbol
 _atom_site_label
 _atom_site_symmetry_multiplicity
 _atom_site_fract_x
 _atom_site_fract_y
 _atom_site_fract_z
 _atom_site_fract_occupancy
 Fe  Fe1  1  0.00000  0.50000  -0.00000  1
 Fe  Fe2  1  0.00000  -0.00000  0.50000  1
 Ho  Ho1  1  0.50000  -0.00000  0.00000  1
 Ho  Ho2  1  0.50000  0.50000  0.50000  1
 Ho  Ho3  1  0.50000  -0.00000  0.50000  1
 Ho  Ho4  1  0.00000  0.00000  0.00000  1
 O  O1  1  0.92200  0.17200  0.75000  1
 O  O2  1  0.33842  0.58842  0.75000  1
 O  O3  1  0.62527  0.87527  0.75000  1
 O  O4  1  0.33042  0.16198  0.74641  1
 O  O5  1  0.91557  0.16198  0.33156  1
 O  O6  1  0.91557  0.58401  0.75359  1
 O  O7  1  0.07800  0.82800  0.25000  1
 O  O8  1  0.66958  0.83802  0.25359  1
 O  O9  1  0.08443  0.41599  0.24641  1
 O  O10  1  0.33042  0.58401  0.16844  1
 O  O11  1  0.08443  0.83802  0.66844  1
 O  O12  1  0.66958  0.41599  0.83156  1
 O  O13  1  0.66158  0.41158  0.25000  1
 O  O14  1  0.37473  0.12473  0.25000  1
 Sb  Sb1  1  0.50000  0.50000  0.00000  1
 Sb  Sb2  1  0.00000  0.50000  0.50000  1
