CIF file written using JARVIS-Tools package.
data_Nb5SnSe8
_symmetry_space_group_name_H-M  'C2/m'
_cell_length_a       9.5357
_cell_length_b       9.5357
_cell_length_c       9.39612
_cell_angle_alpha    77.1939
_cell_angle_beta     77.1939
_cell_angle_gamma    20.9099

_symmetry_Int_Tables_number  12
_chemical_formula_structural  Nb5SnSe8
_chemical_formula_sum  Nb5SnSe8
_cell_volume  297.0837938533856
_cell_formula_units_Z  1
loop_
  _symmetry_equiv_pos_site_id
 _symmetry_equiv_pos_as_xyz
 1  'x, y, z'
loop_
 _atom_site_type_symbol
 _atom_site_label
 _atom_site_symmetry_multiplicity
 _atom_site_fract_x
 _atom_site_fract_y
 _atom_site_fract_z
 _atom_site_fract_occupancy
 Nb  Nb1  1  0.00000  0.00000  0.00000  1
 Nb  Nb2  1  0.35907  0.35907  0.00126  1
 Nb  Nb3  1  0.64093  0.64093  -0.00126  1
 Nb  Nb4  1  0.28745  0.28745  0.37029  1
 Nb  Nb5  1  0.71255  0.71255  0.62971  1
 Se  Se1  1  0.56913  0.56913  0.79824  1
 Se  Se2  1  0.43087  0.43087  0.20176  1
 Se  Se3  1  0.08502  0.08502  0.19306  1
 Se  Se4  1  0.91498  0.91498  0.80694  1
 Se  Se5  1  0.15026  0.15026  0.48948  1
 Se  Se6  1  0.84974  0.84974  0.51052  1
 Se  Se7  1  0.24168  0.24168  0.84034  1
 Se  Se8  1  0.75832  0.75832  0.15966  1
 Sn  Sn1  1  0.50000  0.50000  0.50000  1
