CIF file written using JARVIS-Tools package.
data_VMo6Se8
_symmetry_space_group_name_H-M  'R-3'
_cell_length_a       6.67513
_cell_length_b       6.67513
_cell_length_c       6.67513
_cell_angle_alpha    90.6141
_cell_angle_beta     90.614
_cell_angle_gamma    90.614

_symmetry_Int_Tables_number  148
_chemical_formula_structural  VMo6Se8
_chemical_formula_sum  VMo6Se8
_cell_volume  297.37482627069664
_cell_formula_units_Z  1
loop_
  _symmetry_equiv_pos_site_id
 _symmetry_equiv_pos_as_xyz
 1  'x, y, z'
loop_
 _atom_site_type_symbol
 _atom_site_label
 _atom_site_symmetry_multiplicity
 _atom_site_fract_x
 _atom_site_fract_y
 _atom_site_fract_z
 _atom_site_fract_occupancy
 Mo  Mo1  1  0.22746  0.55247  0.42247  1
 Mo  Mo2  1  0.77254  0.44753  0.57753  1
 Mo  Mo3  1  0.42247  0.22746  0.55247  1
 Mo  Mo4  1  0.57753  0.77254  0.44753  1
 Mo  Mo5  1  0.55247  0.42247  0.22746  1
 Mo  Mo6  1  0.44753  0.57753  0.77254  1
 Se  Se1  1  0.12456  0.36205  0.75904  1
 Se  Se2  1  0.87544  0.63795  0.24096  1
 Se  Se3  1  0.22431  0.22431  0.22431  1
 Se  Se4  1  0.77569  0.77569  0.77569  1
 Se  Se5  1  0.36205  0.75904  0.12456  1
 Se  Se6  1  0.63795  0.24096  0.87544  1
 Se  Se7  1  0.75904  0.12456  0.36205  1
 Se  Se8  1  0.24096  0.87544  0.63795  1
 V  V1  1  0.00000  0.00000  0.00000  1
