CIF file written using JARVIS-Tools package.
data_CaI2O4
_symmetry_space_group_name_H-M  'P2_1/c'
_cell_length_a       9.17747
_cell_length_b       3.74504
_cell_length_c       7.09384
_cell_angle_alpha    79.2027
_cell_angle_beta     90
_cell_angle_gamma    90

_symmetry_Int_Tables_number  14
_chemical_formula_structural  CaI2O4
_chemical_formula_sum  Ca2I4O8
_cell_volume  239.4990357456136
_cell_formula_units_Z  2
loop_
  _symmetry_equiv_pos_site_id
 _symmetry_equiv_pos_as_xyz
 1  'x, y, z'
loop_
 _atom_site_type_symbol
 _atom_site_label
 _atom_site_symmetry_multiplicity
 _atom_site_fract_x
 _atom_site_fract_y
 _atom_site_fract_z
 _atom_site_fract_occupancy
 Ca  Ca1  1  0.50000  -0.00000  0.50000  1
 Ca  Ca2  1  0.00000  0.00000  0.00000  1
 I  I1  1  0.86491  0.73192  0.61519  1
 I  I2  1  0.36491  0.26808  0.88481  1
 I  I3  1  0.13509  0.26808  0.38481  1
 I  I4  1  0.63509  0.73192  0.11519  1
 O  O1  1  0.35426  0.46473  0.60415  1
 O  O2  1  0.85426  0.53527  0.89585  1
 O  O3  1  0.64574  0.53527  0.39585  1
 O  O4  1  0.14574  0.46473  0.10415  1
 O  O5  1  0.05076  -0.03949  0.67780  1
 O  O6  1  0.55076  0.03949  0.82220  1
 O  O7  1  0.94924  0.03949  0.32220  1
 O  O8  1  0.44924  -0.03949  0.17780  1
