CIF file written using JARVIS-Tools package.
data_ZrCo
_symmetry_space_group_name_H-M  'P-6m2'
_cell_length_a       3.62495
_cell_length_b       3.62495
_cell_length_c       3.12054
_cell_angle_alpha    90
_cell_angle_beta     90
_cell_angle_gamma    120

_symmetry_Int_Tables_number  187
_chemical_formula_structural  ZrCo
_chemical_formula_sum  ZrCo
_cell_volume  35.511049387655355
_cell_formula_units_Z  1
loop_
  _symmetry_equiv_pos_site_id
 _symmetry_equiv_pos_as_xyz
 1  'x, y, z'
loop_
 _atom_site_type_symbol
 _atom_site_label
 _atom_site_symmetry_multiplicity
 _atom_site_fract_x
 _atom_site_fract_y
 _atom_site_fract_z
 _atom_site_fract_occupancy
 Co  Co1  1  0.66667  0.33333  0.25000  1
 Zr  Zr1  1  0.33333  0.66667  0.75000  1
