CIF file written using JARVIS-Tools package.
data_Ca3Ru4O14
_symmetry_space_group_name_H-M  'R-3m'
_cell_length_a       7.23341
_cell_length_b       7.18691
_cell_length_c       7.23342
_cell_angle_alpha    90
_cell_angle_beta     60
_cell_angle_gamma    120.214

_symmetry_Int_Tables_number  166
_chemical_formula_structural  Ca3Ru4O14
_chemical_formula_sum  Ca3Ru4O4
_cell_volume  265.0328347520521
_cell_formula_units_Z  1
loop_
  _symmetry_equiv_pos_site_id
 _symmetry_equiv_pos_as_xyz
 1  'x, y, z'
loop_
 _atom_site_type_symbol
 _atom_site_label
 _atom_site_symmetry_multiplicity
 _atom_site_fract_x
 _atom_site_fract_y
 _atom_site_fract_z
 _atom_site_fract_occupancy
 Ca  Ca1  1  0.50000  0.50000  0.50000  1
 Ca  Ca2  1  -0.00000  0.50000  0.00000  1
 Ca  Ca3  1  -0.00000  0.50000  0.50000  1
 O  O1  1  0.87291  0.93181  0.31354  1
 O  O2  1  0.63934  0.32096  0.93033  1
 O  O3  1  0.24535  0.93181  0.94110  1
 O  O4  1  0.76275  0.39413  0.36862  1
 O  O5  1  0.25129  0.32096  0.93033  1
 O  O6  1  0.25129  0.32096  0.31838  1
 O  O7  1  0.12709  0.06819  0.68646  1
 O  O8  1  0.36066  0.67904  0.06967  1
 O  O9  1  0.75465  0.06819  0.05890  1
 O  O10  1  0.74871  0.67904  0.68162  1
 O  O11  1  0.74871  0.67904  0.06967  1
 O  O12  1  0.75465  0.06819  0.68646  1
 O  O13  1  0.24535  0.93181  0.31354  1
 O  O14  1  0.23725  0.60587  0.63138  1
 Ru  Ru1  1  0.00000  0.00000  0.00000  1
 Ru  Ru2  1  0.00000  0.00000  0.50000  1
 Ru  Ru3  1  0.50000  0.00000  0.00000  1
 Ru  Ru4  1  0.50000  0.50000  0.00000  1
