CIF file written using JARVIS-Tools package.
data_Cu3PSe2S2
_symmetry_space_group_name_H-M  'Pmn2_1'
_cell_length_a       6.30264
_cell_length_b       6.57443
_cell_length_c       7.41751
_cell_angle_alpha    90
_cell_angle_beta     90
_cell_angle_gamma    90

_symmetry_Int_Tables_number  31
_chemical_formula_structural  Cu3PSe2S2
_chemical_formula_sum  Cu6P2Se4S4
_cell_volume  307.3539879024235
_cell_formula_units_Z  2
loop_
  _symmetry_equiv_pos_site_id
 _symmetry_equiv_pos_as_xyz
 1  'x, y, z'
loop_
 _atom_site_type_symbol
 _atom_site_label
 _atom_site_symmetry_multiplicity
 _atom_site_fract_x
 _atom_site_fract_y
 _atom_site_fract_z
 _atom_site_fract_occupancy
 Cu  Cu1  1  0.52835  0.82689  0.50000  1
 Cu  Cu2  1  0.02835  0.17311  0.00000  1
 Cu  Cu3  1  0.48760  0.33971  0.24695  1
 Cu  Cu4  1  0.48760  0.33971  0.75305  1
 Cu  Cu5  1  0.98760  0.66029  0.25305  1
 Cu  Cu6  1  0.98760  0.66029  0.74695  1
 P  P1  1  0.01875  0.18139  0.50000  1
 P  P2  1  0.51875  0.81861  0.00000  1
 S  S1  1  0.12825  0.33973  0.26427  1
 S  S2  1  0.12825  0.33973  0.73573  1
 S  S3  1  0.62825  0.66027  0.23573  1
 S  S4  1  0.62825  0.66027  0.76427  1
 Se  Se1  1  0.65558  0.17494  0.50000  1
 Se  Se2  1  0.15558  0.82506  0.00000  1
 Se  Se3  1  0.14162  0.85531  0.50000  1
 Se  Se4  1  0.64162  0.14469  0.00000  1
