CIF file written using JARVIS-Tools package.
data_B2Se
_symmetry_space_group_name_H-M  'Pmm2'
_cell_length_a       5.36785
_cell_length_b       2.69962
_cell_length_c       3.21781
_cell_angle_alpha    90
_cell_angle_beta     90
_cell_angle_gamma    90

_symmetry_Int_Tables_number  25
_chemical_formula_structural  B2Se
_chemical_formula_sum  B2Se
_cell_volume  46.62988022941253
_cell_formula_units_Z  1
loop_
  _symmetry_equiv_pos_site_id
 _symmetry_equiv_pos_as_xyz
 1  'x, y, z'
loop_
 _atom_site_type_symbol
 _atom_site_label
 _atom_site_symmetry_multiplicity
 _atom_site_fract_x
 _atom_site_fract_y
 _atom_site_fract_z
 _atom_site_fract_occupancy
 B  B1  1  -0.07009  0.00000  0.75334  1
 B  B2  1  -0.07009  0.00000  0.24666  1
 Se  Se1  1  0.54019  0.00000  0.00000  1
