CIF file written using JARVIS-Tools package.
data_PrCo12B6
_symmetry_space_group_name_H-M  'R-3m'
_cell_length_a       5.97785
_cell_length_b       5.97785
_cell_length_c       5.97785
_cell_angle_alpha    104.044
_cell_angle_beta     104.044
_cell_angle_gamma    104.044

_symmetry_Int_Tables_number  166
_chemical_formula_structural  PrCo12B6
_chemical_formula_sum  PrCo2B6
_cell_volume  190.436958579459
_cell_formula_units_Z  1
loop_
  _symmetry_equiv_pos_site_id
 _symmetry_equiv_pos_as_xyz
 1  'x, y, z'
loop_
 _atom_site_type_symbol
 _atom_site_label
 _atom_site_symmetry_multiplicity
 _atom_site_fract_x
 _atom_site_fract_y
 _atom_site_fract_z
 _atom_site_fract_occupancy
 B  B1  1  0.67121  0.23078  0.23078  1
 B  B2  1  0.32879  0.76922  0.76922  1
 B  B3  1  0.76922  0.76922  0.32879  1
 B  B4  1  0.76922  0.32879  0.76922  1
 B  B5  1  0.23078  0.23078  0.67121  1
 B  B6  1  0.23078  0.67121  0.23078  1
 Co  Co1  1  0.86653  0.13347  0.50000  1
 Co  Co2  1  0.13347  0.86653  0.50000  1
 Co  Co3  1  0.50000  0.13347  0.86653  1
 Co  Co4  1  0.86653  0.50000  0.13347  1
 Co  Co5  1  0.13347  0.50000  0.86653  1
 Co  Co6  1  0.81254  0.54158  0.54158  1
 Co  Co7  1  0.54158  0.81254  0.54158  1
 Co  Co8  1  0.54158  0.54158  0.81254  1
 Co  Co9  1  0.45842  0.18746  0.45842  1
 Co  Co10  1  0.45842  0.45842  0.18746  1
 Co  Co11  1  0.18746  0.45842  0.45842  1
 Co  Co12  1  0.50000  0.86653  0.13347  1
 Pr  Pr1  1  0.00000  0.00000  0.00000  1
