CIF file written using JARVIS-Tools package.
data_B2Se
_symmetry_space_group_name_H-M  'P1'
_cell_length_a       4.96173
_cell_length_b       3.9759
_cell_length_c       3.53776
_cell_angle_alpha    84.3674
_cell_angle_beta     40.9655
_cell_angle_gamma    66.5685

_symmetry_Int_Tables_number  1
_chemical_formula_structural  B2Se
_chemical_formula_sum  B2Se
_cell_volume  39.54103064630305
_cell_formula_units_Z  1
loop_
  _symmetry_equiv_pos_site_id
 _symmetry_equiv_pos_as_xyz
 1  'x, y, z'
loop_
 _atom_site_type_symbol
 _atom_site_label
 _atom_site_symmetry_multiplicity
 _atom_site_fract_x
 _atom_site_fract_y
 _atom_site_fract_z
 _atom_site_fract_occupancy
 B  B1  1  0.90110  0.56014  0.52062  1
 B  B2  1  0.45672  0.45027  0.05995  1
 Se  Se1  1  0.87766  0.91401  0.00114  1
