CIF file written using JARVIS-Tools package.
data_CrGaN2
_symmetry_space_group_name_H-M  'Pna2_1'
_cell_length_a       5.54408
_cell_length_b       6.5308
_cell_length_c       5.1475
_cell_angle_alpha    90
_cell_angle_beta     90
_cell_angle_gamma    90

_symmetry_Int_Tables_number  33
_chemical_formula_structural  CrGaN2
_chemical_formula_sum  Cr4Ga4N8
_cell_volume  186.37661787208242
_cell_formula_units_Z  4
loop_
  _symmetry_equiv_pos_site_id
 _symmetry_equiv_pos_as_xyz
 1  'x, y, z'
loop_
 _atom_site_type_symbol
 _atom_site_label
 _atom_site_symmetry_multiplicity
 _atom_site_fract_x
 _atom_site_fract_y
 _atom_site_fract_z
 _atom_site_fract_occupancy
 Cr  Cr1  1  0.57792  0.87519  0.99888  1
 Cr  Cr2  1  0.42208  0.12481  0.49888  1
 Cr  Cr3  1  0.92208  0.37519  0.49888  1
 Cr  Cr4  1  0.07792  0.62481  0.99888  1
 Ga  Ga1  1  0.58228  0.37484  0.00383  1
 Ga  Ga2  1  0.41772  0.62516  0.50383  1
 Ga  Ga3  1  0.91772  0.87484  0.50383  1
 Ga  Ga4  1  0.08228  0.12516  0.00383  1
 N  N1  1  0.58399  0.37636  0.38850  1
 N  N2  1  0.41601  0.62364  0.88850  1
 N  N3  1  0.91601  0.87636  0.88850  1
 N  N4  1  0.08399  0.12364  0.38850  1
 N  N5  1  0.58344  0.87324  0.37879  1
 N  N6  1  0.41656  0.12676  0.87879  1
 N  N7  1  0.91656  0.37324  0.87879  1
 N  N8  1  0.08344  0.62676  0.37879  1
