CIF file written using JARVIS-Tools package.
data_NdScS3
_symmetry_space_group_name_H-M  'Pnma'
_cell_length_a       6.47687
_cell_length_b       7.16692
_cell_length_c       9.56454
_cell_angle_alpha    90
_cell_angle_beta     90
_cell_angle_gamma    90

_symmetry_Int_Tables_number  62
_chemical_formula_structural  NdScS3
_chemical_formula_sum  Nd4Sc4S2
_cell_volume  443.97841027864484
_cell_formula_units_Z  4
loop_
  _symmetry_equiv_pos_site_id
 _symmetry_equiv_pos_as_xyz
 1  'x, y, z'
loop_
 _atom_site_type_symbol
 _atom_site_label
 _atom_site_symmetry_multiplicity
 _atom_site_fract_x
 _atom_site_fract_y
 _atom_site_fract_z
 _atom_site_fract_occupancy
 Nd  Nd1  1  0.53730  0.40084  0.75000  1
 Nd  Nd2  1  0.46270  0.59916  0.25000  1
 Nd  Nd3  1  0.03730  0.09916  0.25000  1
 Nd  Nd4  1  0.96270  0.90084  0.75000  1
 S  S1  1  0.82380  0.18643  0.56195  1
 S  S2  1  0.37157  0.03568  0.75000  1
 S  S3  1  0.32380  0.31357  0.06195  1
 S  S4  1  0.67620  0.68643  0.56195  1
 S  S5  1  0.17620  0.81357  0.06195  1
 S  S6  1  0.17620  0.81357  0.43805  1
 S  S7  1  0.32380  0.31357  0.43805  1
 S  S8  1  0.87157  0.46432  0.25000  1
 S  S9  1  0.82380  0.18643  0.93805  1
 S  S10  1  0.12843  0.53568  0.75000  1
 S  S11  1  0.67620  0.68643  0.93805  1
 S  S12  1  0.62843  0.96432  0.25000  1
 Sc  Sc1  1  0.50000  0.00000  0.00000  1
 Sc  Sc2  1  0.50000  0.00000  0.50000  1
 Sc  Sc3  1  0.00000  0.50000  0.50000  1
 Sc  Sc4  1  0.00000  0.50000  0.00000  1
