CIF file written using JARVIS-Tools package.
data_Ba2YCo3O8
_symmetry_space_group_name_H-M  'P4/mmm'
_cell_length_a       3.8629
_cell_length_b       3.86291
_cell_length_c       11.706
_cell_angle_alpha    90
_cell_angle_beta     90
_cell_angle_gamma    90

_symmetry_Int_Tables_number  123
_chemical_formula_structural  Ba2YCo3O8
_chemical_formula_sum  Ba2YCo3O8
_cell_volume  174.677585476813
_cell_formula_units_Z  1
loop_
  _symmetry_equiv_pos_site_id
 _symmetry_equiv_pos_as_xyz
 1  'x, y, z'
loop_
 _atom_site_type_symbol
 _atom_site_label
 _atom_site_symmetry_multiplicity
 _atom_site_fract_x
 _atom_site_fract_y
 _atom_site_fract_z
 _atom_site_fract_occupancy
 Ba  Ba1  1  0.50000  0.50000  0.17204  1
 Ba  Ba2  1  0.50000  0.50000  0.82800  1
 Co  Co1  1  0.00000  0.00000  0.34753  1
 Co  Co2  1  -0.00000  0.00000  0.00005  1
 Co  Co3  1  -0.00000  1.00000  0.65246  1
 O  O1  1  0.00000  0.50000  0.38007  1
 O  O2  1  0.50000  0.00000  0.38007  1
 O  O3  1  0.50000  -0.00000  0.00002  1
 O  O4  1  1.00000  0.00000  0.18599  1
 O  O5  1  -0.00000  0.50000  0.61989  1
 O  O6  1  0.50000  1.00000  0.61989  1
 O  O7  1  1.00000  -0.00000  0.81398  1
 O  O8  1  0.00000  0.50000  0.00002  1
 Y  Y1  1  0.50000  0.50000  0.49999  1
