CIF file written using JARVIS-Tools package.
data_TiSiOs
_symmetry_space_group_name_H-M  'Ima2'
_cell_length_a       7.4087
_cell_length_b       7.4087
_cell_length_c       7.40869
_cell_angle_alpha    127.85
_cell_angle_beta     122.489
_cell_angle_gamma    81.3312

_symmetry_Int_Tables_number  46
_chemical_formula_structural  TiSiOs
_chemical_formula_sum  Ti6Si6Os6
_cell_volume  260.9026328227644
_cell_formula_units_Z  6
loop_
  _symmetry_equiv_pos_site_id
 _symmetry_equiv_pos_as_xyz
 1  'x, y, z'
loop_
 _atom_site_type_symbol
 _atom_site_label
 _atom_site_symmetry_multiplicity
 _atom_site_fract_x
 _atom_site_fract_y
 _atom_site_fract_z
 _atom_site_fract_occupancy
 Os  Os1  1  0.16356  0.00306  0.91199  1
 Os  Os2  1  0.59107  0.00306  0.33950  1
 Os  Os3  1  0.40893  0.74843  0.41199  1
 Os  Os4  1  0.50000  0.25588  0.75588  1
 Os  Os5  1  0.00000  0.25588  0.25588  1
 Os  Os6  1  0.83644  0.74843  0.83950  1
 Si  Si1  1  0.21702  0.95968  0.24266  1
 Si  Si2  1  0.78298  0.02563  0.74266  1
 Si  Si3  1  0.17343  0.67208  0.51080  1
 Si  Si4  1  0.82657  0.33737  0.49865  1
 Si  Si5  1  0.33872  0.33737  0.01080  1
 Si  Si6  1  0.66128  0.67208  0.99865  1
 Ti  Ti1  1  0.75311  0.58599  0.33288  1
 Ti  Ti2  1  0.24689  0.57977  0.83288  1
 Ti  Ti3  1  0.97388  0.45458  0.98071  1
 Ti  Ti4  1  0.02612  0.00683  0.48071  1
 Ti  Ti5  1  0.55423  0.01018  0.95595  1
 Ti  Ti6  1  0.44577  0.40172  0.45595  1
