CIF file written using JARVIS-Tools package.
data_CoMo4O15
_symmetry_space_group_name_H-M  'P-1'
_cell_length_a       5.39882
_cell_length_b       6.59787
_cell_length_c       7.47055
_cell_angle_alpha    88.6222
_cell_angle_beta     77.8827
_cell_angle_gamma    90.1018

_symmetry_Int_Tables_number  2
_chemical_formula_structural  CoMo4O15
_chemical_formula_sum  CoMo4O5
_cell_volume  260.0959068120047
_cell_formula_units_Z  1
loop_
  _symmetry_equiv_pos_site_id
 _symmetry_equiv_pos_as_xyz
 1  'x, y, z'
loop_
 _atom_site_type_symbol
 _atom_site_label
 _atom_site_symmetry_multiplicity
 _atom_site_fract_x
 _atom_site_fract_y
 _atom_site_fract_z
 _atom_site_fract_occupancy
 Co  Co1  1  0.00000  0.00000  0.00000  1
 Mo  Mo1  1  0.55061  0.30309  0.81378  1
 Mo  Mo2  1  0.44939  0.69691  0.18622  1
 Mo  Mo3  1  0.88096  0.32766  0.38436  1
 Mo  Mo4  1  0.11904  0.67234  0.61564  1
 O  O1  1  0.78778  0.16641  0.89579  1
 O  O2  1  0.21222  0.83359  0.10421  1
 O  O3  1  0.28203  0.15143  0.89335  1
 O  O4  1  0.71797  0.84857  0.10665  1
 O  O5  1  0.06404  0.14190  0.53605  1
 O  O6  1  0.62605  0.19060  0.56713  1
 O  O7  1  0.16418  0.49943  0.35106  1
 O  O8  1  0.83582  0.50057  0.64894  1
 O  O9  1  0.37395  0.80940  0.43287  1
 O  O10  1  0.33406  0.49915  0.69124  1
 O  O11  1  0.66594  0.50085  0.30876  1
 O  O12  1  0.95146  0.16955  0.19601  1
 O  O13  1  0.04854  0.83045  0.80399  1
 O  O14  1  0.50000  0.50000  -0.00000  1
 O  O15  1  0.93596  0.85810  0.46395  1
