CIF file written using JARVIS-Tools package.
data_BaMgP
_symmetry_space_group_name_H-M  'Amm2'
_cell_length_a       6.80066
_cell_length_b       4.28949
_cell_length_c       3.5985
_cell_angle_alpha    90
_cell_angle_beta     90
_cell_angle_gamma    108.347

_symmetry_Int_Tables_number  38
_chemical_formula_structural  BaMgP
_chemical_formula_sum  BaMgP
_cell_volume  99.63713677314733
_cell_formula_units_Z  1
loop_
  _symmetry_equiv_pos_site_id
 _symmetry_equiv_pos_as_xyz
 1  'x, y, z'
loop_
 _atom_site_type_symbol
 _atom_site_label
 _atom_site_symmetry_multiplicity
 _atom_site_fract_x
 _atom_site_fract_y
 _atom_site_fract_z
 _atom_site_fract_occupancy
 Ba  Ba1  1  -0.18069  -0.20749  0.00000  1
 Mg  Mg1  1  0.37860  0.07207  0.00000  1
 P  P1  1  0.17612  0.47095  0.00000  1
