CIF file written using JARVIS-Tools package.
data_Nb3VSe6
_symmetry_space_group_name_H-M  'P6_322'
_cell_length_a       6.05285
_cell_length_b       6.05285
_cell_length_c       12.6855
_cell_angle_alpha    90
_cell_angle_beta     90
_cell_angle_gamma    120

_symmetry_Int_Tables_number  182
_chemical_formula_structural  Nb3VSe6
_chemical_formula_sum  Nb6V2Se2
_cell_volume  402.49227200150034
_cell_formula_units_Z  2
loop_
  _symmetry_equiv_pos_site_id
 _symmetry_equiv_pos_as_xyz
 1  'x, y, z'
loop_
 _atom_site_type_symbol
 _atom_site_label
 _atom_site_symmetry_multiplicity
 _atom_site_fract_x
 _atom_site_fract_y
 _atom_site_fract_z
 _atom_site_fract_occupancy
 Nb  Nb1  1  0.00000  0.00000  0.50000  1
 Nb  Nb2  1  0.00000  0.00000  0.00000  1
 Nb  Nb3  1  0.33333  0.66667  0.99924  1
 Nb  Nb4  1  0.66667  0.33333  0.00076  1
 Nb  Nb5  1  0.66667  0.33333  0.49924  1
 Nb  Nb6  1  0.33333  0.66667  0.50076  1
 Se  Se1  1  0.33308  0.33101  0.36624  1
 Se  Se2  1  0.99793  0.33101  0.13376  1
 Se  Se3  1  0.99793  0.66692  0.36624  1
 Se  Se4  1  0.33101  0.33308  0.63376  1
 Se  Se5  1  0.66899  0.00207  0.36624  1
 Se  Se6  1  0.66692  0.99793  0.63376  1
 Se  Se7  1  0.00207  0.33308  0.86624  1
 Se  Se8  1  0.33101  0.99793  0.86624  1
 Se  Se9  1  0.00207  0.66899  0.63376  1
 Se  Se10  1  0.66899  0.66692  0.13376  1
 Se  Se11  1  0.66692  0.66899  0.86624  1
 Se  Se12  1  0.33308  0.00207  0.13376  1
 V  V1  1  0.66667  0.33333  0.75000  1
 V  V2  1  0.33333  0.66667  0.25000  1
