CIF file written using JARVIS-Tools package.
data_LiNiAsO4
_symmetry_space_group_name_H-M  'Pnma'
_cell_length_a       4.8924
_cell_length_b       5.91171
_cell_length_c       10.3087
_cell_angle_alpha    90
_cell_angle_beta     90
_cell_angle_gamma    90

_symmetry_Int_Tables_number  62
_chemical_formula_structural  LiNiAsO4
_chemical_formula_sum  Li4Ni4As4O6
_cell_volume  298.1540082446041
_cell_formula_units_Z  4
loop_
  _symmetry_equiv_pos_site_id
 _symmetry_equiv_pos_as_xyz
 1  'x, y, z'
loop_
 _atom_site_type_symbol
 _atom_site_label
 _atom_site_symmetry_multiplicity
 _atom_site_fract_x
 _atom_site_fract_y
 _atom_site_fract_z
 _atom_site_fract_occupancy
 As  As1  1  0.93760  0.75000  0.40664  1
 As  As2  1  0.06240  0.25000  0.59336  1
 As  As3  1  0.43760  0.25000  0.09336  1
 As  As4  1  0.56240  0.75000  0.90664  1
 Li  Li1  1  0.00000  0.00000  0.00000  1
 Li  Li2  1  0.50000  0.50000  0.50000  1
 Li  Li3  1  0.00000  0.50000  0.00000  1
 Li  Li4  1  0.50000  0.00000  0.50000  1
 Ni  Ni1  1  0.50653  0.25000  0.77069  1
 Ni  Ni2  1  0.00653  0.75000  0.72931  1
 Ni  Ni3  1  0.49347  0.75000  0.22931  1
 Ni  Ni4  1  0.99347  0.25000  0.27069  1
 O  O1  1  0.29207  0.25000  0.94014  1
 O  O2  1  0.78717  0.25000  0.09428  1
 O  O3  1  0.22954  0.02379  0.66933  1
 O  O4  1  0.71283  0.25000  0.59428  1
 O  O5  1  0.28717  0.75000  0.40572  1
 O  O6  1  0.70793  0.75000  0.05986  1
 O  O7  1  0.21283  0.75000  0.90572  1
 O  O8  1  0.77046  0.52379  0.33067  1
 O  O9  1  0.22954  0.47621  0.66933  1
 O  O10  1  0.72954  0.52379  0.83067  1
 O  O11  1  0.77046  0.97621  0.33067  1
 O  O12  1  0.27046  0.02379  0.16933  1
 O  O13  1  0.20793  0.25000  0.44014  1
 O  O14  1  0.27046  0.47621  0.16933  1
 O  O15  1  0.79207  0.75000  0.55986  1
 O  O16  1  0.72954  0.97621  0.83067  1
