CIF file written using JARVIS-Tools package.
data_La5Sn3
_symmetry_space_group_name_H-M  'P6_3/mcm'
_cell_length_a       9.50866
_cell_length_b       9.50867
_cell_length_c       6.95502
_cell_angle_alpha    90
_cell_angle_beta     90
_cell_angle_gamma    120

_symmetry_Int_Tables_number  193
_chemical_formula_structural  La5Sn3
_chemical_formula_sum  La0Sn6
_cell_volume  544.5882866521246
_cell_formula_units_Z  2
loop_
  _symmetry_equiv_pos_site_id
 _symmetry_equiv_pos_as_xyz
 1  'x, y, z'
loop_
 _atom_site_type_symbol
 _atom_site_label
 _atom_site_symmetry_multiplicity
 _atom_site_fract_x
 _atom_site_fract_y
 _atom_site_fract_z
 _atom_site_fract_occupancy
 La  La1  1  0.66667  0.33333  0.00000  1
 La  La2  1  0.33333  0.66667  0.00000  1
 La  La3  1  0.33333  0.66667  0.50000  1
 La  La4  1  0.66667  0.33333  0.50000  1
 La  La5  1  0.75380  0.75380  0.75000  1
 La  La6  1  0.24620  -0.00000  0.75000  1
 La  La7  1  -0.00000  0.24620  0.75000  1
 La  La8  1  0.24620  0.24620  0.25000  1
 La  La9  1  0.75380  0.00000  0.25000  1
 La  La10  1  0.00000  0.75380  0.25000  1
 Sn  Sn1  1  0.39134  0.39134  0.75000  1
 Sn  Sn2  1  0.60866  -0.00000  0.75000  1
 Sn  Sn3  1  -0.00000  0.60866  0.75000  1
 Sn  Sn4  1  0.60866  0.60866  0.25000  1
 Sn  Sn5  1  0.39134  0.00000  0.25000  1
 Sn  Sn6  1  0.00000  0.39134  0.25000  1
