CIF file written using JARVIS-Tools package.
data_HoMoO4F
_symmetry_space_group_name_H-M  'P2_1/c'
_cell_length_a       12.2461
_cell_length_b       5.19388
_cell_length_c       6.64636
_cell_angle_alpha    66.877
_cell_angle_beta     90
_cell_angle_gamma    90

_symmetry_Int_Tables_number  14
_chemical_formula_structural  HoMoO4F
_chemical_formula_sum  Ho4Mo4O6F4
_cell_volume  388.779080241106
_cell_formula_units_Z  4
loop_
  _symmetry_equiv_pos_site_id
 _symmetry_equiv_pos_as_xyz
 1  'x, y, z'
loop_
 _atom_site_type_symbol
 _atom_site_label
 _atom_site_symmetry_multiplicity
 _atom_site_fract_x
 _atom_site_fract_y
 _atom_site_fract_z
 _atom_site_fract_occupancy
 F  F1  1  0.09981  0.54773  0.03557  1
 F  F2  1  0.40019  0.54773  0.53557  1
 F  F3  1  0.90019  0.45227  0.96443  1
 F  F4  1  0.59981  0.45227  0.46443  1
 Ho  Ho1  1  0.05072  0.36128  0.80026  1
 Ho  Ho2  1  0.44928  0.36128  0.30026  1
 Ho  Ho3  1  0.94928  0.63872  0.19974  1
 Ho  Ho4  1  0.55072  0.63872  0.69974  1
 Mo  Mo1  1  0.64422  0.92397  0.12847  1
 Mo  Mo2  1  0.35578  0.07603  0.87153  1
 Mo  Mo3  1  0.14422  0.07603  0.37153  1
 Mo  Mo4  1  0.85578  0.92397  0.62847  1
 O  O1  1  0.56938  0.99685  0.33682  1
 O  O2  1  0.06938  0.00315  0.16318  1
 O  O3  1  0.27839  0.18982  0.29390  1
 O  O4  1  0.72161  0.81018  0.70610  1
 O  O5  1  0.22161  0.18982  0.79390  1
 O  O6  1  0.06537  0.30780  0.46241  1
 O  O7  1  0.93062  0.99685  0.83682  1
 O  O8  1  0.77839  0.81018  0.20610  1
 O  O9  1  0.84510  0.24100  0.40501  1
 O  O10  1  0.43062  0.00315  0.66318  1
 O  O11  1  0.93463  0.69220  0.53759  1
 O  O12  1  0.43463  0.30780  0.96241  1
 O  O13  1  0.15490  0.75900  0.59499  1
 O  O14  1  0.65490  0.24100  0.90501  1
 O  O15  1  0.34510  0.75900  0.09499  1
 O  O16  1  0.56537  0.69220  0.03759  1
