CIF file written using JARVIS-Tools package.
data_BaVClO3
_symmetry_space_group_name_H-M  'Pnma'
_cell_length_a       5.3048
_cell_length_b       7.38871
_cell_length_c       10.5415
_cell_angle_alpha    90
_cell_angle_beta     90
_cell_angle_gamma    90

_symmetry_Int_Tables_number  62
_chemical_formula_structural  BaVClO3
_chemical_formula_sum  Ba4V4Cl4O2
_cell_volume  413.18124728207425
_cell_formula_units_Z  4
loop_
  _symmetry_equiv_pos_site_id
 _symmetry_equiv_pos_as_xyz
 1  'x, y, z'
loop_
 _atom_site_type_symbol
 _atom_site_label
 _atom_site_symmetry_multiplicity
 _atom_site_fract_x
 _atom_site_fract_y
 _atom_site_fract_z
 _atom_site_fract_occupancy
 Ba  Ba1  1  0.75000  0.59658  0.30425  1
 Ba  Ba2  1  0.25000  0.40342  0.69575  1
 Ba  Ba3  1  0.25000  0.09658  0.19575  1
 Ba  Ba4  1  0.75000  0.90342  0.80425  1
 Cl  Cl1  1  0.75000  0.92477  0.10392  1
 Cl  Cl2  1  0.75000  0.57523  0.60392  1
 Cl  Cl3  1  0.25000  0.07523  0.89608  1
 Cl  Cl4  1  0.25000  0.42477  0.39608  1
 O  O1  1  0.75000  0.21626  0.35399  1
 O  O2  1  0.25000  0.78374  0.64601  1
 O  O3  1  0.99199  0.40415  0.09364  1
 O  O4  1  0.49199  0.90415  0.40636  1
 O  O5  1  0.50801  0.09585  0.59364  1
 O  O6  1  0.00801  0.90415  0.40636  1
 O  O7  1  0.75000  0.28374  0.85399  1
 O  O8  1  0.25000  0.71626  0.14601  1
 O  O9  1  0.49199  0.59585  0.90636  1
 O  O10  1  0.50801  0.40415  0.09364  1
 O  O11  1  0.99199  0.09585  0.59364  1
 O  O12  1  0.00801  0.59585  0.90636  1
 V  V1  1  0.75000  0.04877  0.45675  1
 V  V2  1  0.25000  0.54877  0.04325  1
 V  V3  1  0.25000  0.95123  0.54325  1
 V  V4  1  0.75000  0.45123  0.95675  1
