CIF file written using JARVIS-Tools package.
data_Nb2B2Os
_symmetry_space_group_name_H-M  'P4/mnc'
_cell_length_a       5.94198
_cell_length_b       5.94198
_cell_length_c       6.9121
_cell_angle_alpha    90
_cell_angle_beta     90
_cell_angle_gamma    90

_symmetry_Int_Tables_number  128
_chemical_formula_structural  Nb2B2Os
_chemical_formula_sum  Nb8B8Os4
_cell_volume  244.04686322476869
_cell_formula_units_Z  4
loop_
  _symmetry_equiv_pos_site_id
 _symmetry_equiv_pos_as_xyz
 1  'x, y, z'
loop_
 _atom_site_type_symbol
 _atom_site_label
 _atom_site_symmetry_multiplicity
 _atom_site_fract_x
 _atom_site_fract_y
 _atom_site_fract_z
 _atom_site_fract_occupancy
 B  B1  1  0.38720  0.88720  0.75000  1
 B  B2  1  0.88720  0.61280  0.75000  1
 B  B3  1  0.38720  0.88720  0.25000  1
 B  B4  1  0.11280  0.38720  0.75000  1
 B  B5  1  0.61280  0.11280  0.25000  1
 B  B6  1  0.88720  0.61280  0.25000  1
 B  B7  1  0.11280  0.38720  0.25000  1
 B  B8  1  0.61280  0.11280  0.75000  1
 Nb  Nb1  1  0.66451  0.81294  0.50000  1
 Nb  Nb2  1  0.31294  0.16451  0.00000  1
 Nb  Nb3  1  0.18706  0.66451  0.50000  1
 Nb  Nb4  1  0.81294  0.33549  0.50000  1
 Nb  Nb5  1  0.16451  0.68706  0.00000  1
 Nb  Nb6  1  0.83549  0.31294  0.00000  1
 Nb  Nb7  1  0.33549  0.18706  0.50000  1
 Nb  Nb8  1  0.68706  0.83549  0.00000  1
 Os  Os1  1  0.00000  0.00000  0.72071  1
 Os  Os2  1  0.50000  0.50000  0.77929  1
 Os  Os3  1  0.50000  0.50000  0.22071  1
 Os  Os4  1  0.00000  0.00000  0.27929  1
