CIF file written using JARVIS-Tools package.
data_ErAl3B4O12
_symmetry_space_group_name_H-M  'R32'
_cell_length_a       5.8986
_cell_length_b       5.89861
_cell_length_c       5.8986
_cell_angle_alpha    104.461
_cell_angle_beta     104.461
_cell_angle_gamma    104.461

_symmetry_Int_Tables_number  155
_chemical_formula_structural  ErAl3B4O12
_chemical_formula_sum  ErAl3B4O2
_cell_volume  181.46335025556743
_cell_formula_units_Z  1
loop_
  _symmetry_equiv_pos_site_id
 _symmetry_equiv_pos_as_xyz
 1  'x, y, z'
loop_
 _atom_site_type_symbol
 _atom_site_label
 _atom_site_symmetry_multiplicity
 _atom_site_fract_x
 _atom_site_fract_y
 _atom_site_fract_z
 _atom_site_fract_occupancy
 Al  Al1  1  -0.00000  0.44470  0.55530  1
 Al  Al2  1  0.44470  0.55530  -0.00000  1
 Al  Al3  1  0.55530  0.00000  0.44470  1
 B  B1  1  0.50000  0.50000  0.50000  1
 B  B2  1  0.50000  0.05625  0.94375  1
 B  B3  1  0.05625  0.94375  0.50000  1
 B  B4  1  0.94375  0.50000  0.05625  1
 Er  Er1  1  0.00000  0.00000  0.00000  1
 O  O1  1  0.50000  0.64877  0.35123  1
 O  O2  1  0.97104  0.36974  0.21926  1
 O  O3  1  0.35123  0.50000  0.64877  1
 O  O4  1  0.50000  0.90804  0.09196  1
 O  O5  1  0.64877  0.35123  0.50000  1
 O  O6  1  0.78074  0.63026  0.02896  1
 O  O7  1  0.63026  0.02896  0.78074  1
 O  O8  1  0.02896  0.78074  0.63026  1
 O  O9  1  0.90804  0.09196  0.50000  1
 O  O10  1  0.36974  0.21926  0.97104  1
 O  O11  1  0.09196  0.50000  0.90804  1
 O  O12  1  0.21926  0.97104  0.36974  1
