CIF file written using JARVIS-Tools package.
data_MgTiSi2O6
_symmetry_space_group_name_H-M  'C2/c'
_cell_length_a       6.57837
_cell_length_b       6.57837
_cell_length_c       4.8822
_cell_angle_alpha    82.6936
_cell_angle_beta     82.6937
_cell_angle_gamma    84.2599

_symmetry_Int_Tables_number  15
_chemical_formula_structural  MgTiSi2O6
_chemical_formula_sum  Mg2Ti2Si4O2
_cell_volume  207.10383565131232
_cell_formula_units_Z  2
loop_
  _symmetry_equiv_pos_site_id
 _symmetry_equiv_pos_as_xyz
 1  'x, y, z'
loop_
 _atom_site_type_symbol
 _atom_site_label
 _atom_site_symmetry_multiplicity
 _atom_site_fract_x
 _atom_site_fract_y
 _atom_site_fract_z
 _atom_site_fract_occupancy
 Mg  Mg1  1  0.72385  0.27615  0.75000  1
 Mg  Mg2  1  0.27615  0.72385  0.25000  1
 O  O1  1  0.41765  0.29937  0.59311  1
 O  O2  1  0.23955  0.03343  0.35194  1
 O  O3  1  0.58235  0.70063  0.40689  1
 O  O4  1  0.29937  0.41765  0.09311  1
 O  O5  1  0.70063  0.58235  0.90689  1
 O  O6  1  0.85346  0.37631  0.36868  1
 O  O7  1  0.37631  0.85346  0.86868  1
 O  O8  1  0.14654  0.62369  0.63132  1
 O  O9  1  0.03343  0.23955  0.85194  1
 O  O10  1  0.76045  0.96657  0.64806  1
 O  O11  1  0.62369  0.14654  0.13132  1
 O  O12  1  0.96657  0.76045  0.14806  1
 Si  Si1  1  0.59787  0.79005  0.71209  1
 Si  Si2  1  0.20995  0.40213  0.78791  1
 Si  Si3  1  0.79005  0.59787  0.21209  1
 Si  Si4  1  0.40213  0.20995  0.28791  1
 Ti  Ti1  1  0.06988  0.93012  0.75000  1
 Ti  Ti2  1  0.93012  0.06988  0.25000  1
