CIF file written using JARVIS-Tools package.
data_Nb3NiS6
_symmetry_space_group_name_H-M  'P6_322'
_cell_length_a       5.82039
_cell_length_b       5.8204
_cell_length_c       11.8354
_cell_angle_alpha    90
_cell_angle_beta     90
_cell_angle_gamma    120

_symmetry_Int_Tables_number  182
_chemical_formula_structural  Nb3NiS6
_chemical_formula_sum  Nb6Ni2S2
_cell_volume  347.2298054300597
_cell_formula_units_Z  2
loop_
  _symmetry_equiv_pos_site_id
 _symmetry_equiv_pos_as_xyz
 1  'x, y, z'
loop_
 _atom_site_type_symbol
 _atom_site_label
 _atom_site_symmetry_multiplicity
 _atom_site_fract_x
 _atom_site_fract_y
 _atom_site_fract_z
 _atom_site_fract_occupancy
 Nb  Nb1  1  0.00000  0.00000  0.00000  1
 Nb  Nb2  1  0.00000  0.00000  0.50000  1
 Nb  Nb3  1  0.33333  0.66667  0.50232  1
 Nb  Nb4  1  0.66667  0.33333  0.00232  1
 Nb  Nb5  1  0.66667  0.33333  0.49768  1
 Nb  Nb6  1  0.33333  0.66667  0.99768  1
 Ni  Ni1  1  0.33333  0.66667  0.25000  1
 Ni  Ni2  1  0.66667  0.33333  0.75000  1
 S  S1  1  0.33255  0.00099  0.13347  1
 S  S2  1  0.66745  0.66844  0.86653  1
 S  S3  1  0.66745  -0.00099  0.63347  1
 S  S4  1  0.00099  0.33255  0.86653  1
 S  S5  1  -0.00099  0.33156  0.13347  1
 S  S6  1  0.33156  0.33255  0.63347  1
 S  S7  1  0.33156  -0.00099  0.86653  1
 S  S8  1  -0.00099  0.66745  0.36653  1
 S  S9  1  0.66844  0.66745  0.13347  1
 S  S10  1  0.66844  0.00099  0.36653  1
 S  S11  1  0.00099  0.66844  0.63347  1
 S  S12  1  0.33255  0.33156  0.36653  1
