CIF file written using JARVIS-Tools package.
data_Sm3TaO7
_symmetry_space_group_name_H-M  'Cmme'
_cell_length_a       8.2791
_cell_length_b       8.27911
_cell_length_c       5.46043
_cell_angle_alpha    90
_cell_angle_beta     90
_cell_angle_gamma    125.261

_symmetry_Int_Tables_number  67
_chemical_formula_structural  Sm3TaO7
_chemical_formula_sum  Sm6Ta2O4
_cell_volume  305.6081583104198
_cell_formula_units_Z  2
loop_
  _symmetry_equiv_pos_site_id
 _symmetry_equiv_pos_as_xyz
 1  'x, y, z'
loop_
 _atom_site_type_symbol
 _atom_site_label
 _atom_site_symmetry_multiplicity
 _atom_site_fract_x
 _atom_site_fract_y
 _atom_site_fract_z
 _atom_site_fract_occupancy
 O  O1  1  0.25000  0.75000  0.75450  1
 O  O2  1  0.98929  0.01071  0.20734  1
 O  O3  1  0.51071  0.48929  0.20734  1
 O  O4  1  0.33905  0.10669  0.23325  1
 O  O5  1  0.66095  0.89331  0.76675  1
 O  O6  1  0.75000  0.25000  0.24550  1
 O  O7  1  0.48929  0.51071  0.79266  1
 O  O8  1  0.10669  0.33905  0.76675  1
 O  O9  1  0.83905  0.60669  0.76675  1
 O  O10  1  0.16095  0.39331  0.23325  1
 O  O11  1  0.89331  0.66095  0.23325  1
 O  O12  1  0.39331  0.16095  0.76675  1
 O  O13  1  0.60669  0.83905  0.23325  1
 O  O14  1  0.01071  0.98929  0.79266  1
 Sm  Sm1  1  0.11798  0.88202  0.52586  1
 Sm  Sm2  1  -0.00000  0.50000  0.00000  1
 Sm  Sm3  1  0.61798  0.38202  0.47414  1
 Sm  Sm4  1  0.88202  0.11798  0.47414  1
 Sm  Sm5  1  0.50000  -0.00000  0.00000  1
 Sm  Sm6  1  0.38202  0.61798  0.52586  1
 Ta  Ta1  1  0.25000  0.25000  0.00000  1
 Ta  Ta2  1  0.75000  0.75000  0.00000  1
