CIF file written using JARVIS-Tools package.
data_Li3V4SnO12
_symmetry_space_group_name_H-M  'P1'
_cell_length_a       5.0457
_cell_length_b       5.36858
_cell_length_c       7.40592
_cell_angle_alpha    85.0683
_cell_angle_beta     89.9438
_cell_angle_gamma    89.6454

_symmetry_Int_Tables_number  1
_chemical_formula_structural  Li3V4SnO12
_chemical_formula_sum  Li3V4SnO2
_cell_volume  199.86705420757622
_cell_formula_units_Z  1
loop_
  _symmetry_equiv_pos_site_id
 _symmetry_equiv_pos_as_xyz
 1  'x, y, z'
loop_
 _atom_site_type_symbol
 _atom_site_label
 _atom_site_symmetry_multiplicity
 _atom_site_fract_x
 _atom_site_fract_y
 _atom_site_fract_z
 _atom_site_fract_occupancy
 Li  Li1  1  0.50131  0.93393  0.21186  1
 Li  Li2  1  0.99576  0.42516  0.21158  1
 Li  Li3  1  0.50209  0.94053  0.72040  1
 O  O1  1  0.70189  0.23026  0.58060  1
 O  O2  1  0.12144  0.04479  0.77214  1
 O  O3  1  0.68933  0.84311  0.95943  1
 O  O4  1  0.80420  0.72260  0.58377  1
 O  O5  1  0.88305  0.02864  0.25900  1
 O  O6  1  0.61871  0.53877  0.26009  1
 O  O7  1  0.37359  0.54438  0.76665  1
 O  O8  1  0.18448  0.33948  0.46182  1
 O  O9  1  0.19435  0.71880  0.07354  1
 O  O10  1  0.31316  0.22444  0.07992  1
 O  O11  1  0.82013  0.34941  0.96152  1
 O  O12  1  0.30435  0.83131  0.45290  1
 Sn  Sn1  1  0.00064  0.42293  0.71715  1
 V  V1  1  0.48339  0.49352  0.01746  1
 V  V2  1  0.01358  0.00840  0.48423  1
 V  V3  1  0.50916  0.52261  0.48548  1
 V  V4  1  0.98539  0.97772  0.01087  1
