CIF file written using JARVIS-Tools package.
data_Mn3O5F
_symmetry_space_group_name_H-M  'Pm'
_cell_length_a       2.85775
_cell_length_b       6.31165
_cell_length_c       10.0047
_cell_angle_alpha    71.5651
_cell_angle_beta     90
_cell_angle_gamma    90

_symmetry_Int_Tables_number  6
_chemical_formula_structural  Mn3O5F
_chemical_formula_sum  Mn6O0F2
_cell_volume  171.19618137537216
_cell_formula_units_Z  2
loop_
  _symmetry_equiv_pos_site_id
 _symmetry_equiv_pos_as_xyz
 1  'x, y, z'
loop_
 _atom_site_type_symbol
 _atom_site_label
 _atom_site_symmetry_multiplicity
 _atom_site_fract_x
 _atom_site_fract_y
 _atom_site_fract_z
 _atom_site_fract_occupancy
 F  F1  1  0.50000  0.06717  0.86958  1
 F  F2  1  0.00000  0.03041  0.33391  1
 Mn  Mn1  1  0.50000  0.17452  0.65141  1
 Mn  Mn2  1  0.00000  0.34888  0.32828  1
 Mn  Mn3  1  0.00000  0.99357  0.01545  1
 Mn  Mn4  1  0.50000  0.50222  0.99781  1
 Mn  Mn5  1  0.50000  0.81275  0.33990  1
 Mn  Mn6  1  0.00000  0.66702  0.66721  1
 O  O1  1  0.00000  0.63384  0.33529  1
 O  O2  1  0.00000  0.97230  0.66528  1
 O  O3  1  0.50000  0.26770  0.45908  1
 O  O4  1  0.50000  0.40040  0.20005  1
 O  O5  1  0.00000  0.70138  0.00031  1
 O  O6  1  0.00000  0.36397  0.66371  1
 O  O7  1  0.00000  0.29976  0.00155  1
 O  O8  1  0.50000  0.92927  0.13967  1
 O  O9  1  0.50000  0.73382  0.53439  1
 O  O10  1  0.50000  0.60101  0.79711  1
