CIF file written using JARVIS-Tools package.
data_LuWO4
_symmetry_space_group_name_H-M  'I4_1/a'
_cell_length_a       6.49988
_cell_length_b       6.49988
_cell_length_c       6.49987
_cell_angle_alpha    133.331
_cell_angle_beta     133.331
_cell_angle_gamma    68.1352

_symmetry_Int_Tables_number  88
_chemical_formula_structural  LuWO4
_chemical_formula_sum  Lu2W2O8
_cell_volume  142.76239089915404
_cell_formula_units_Z  2
loop_
  _symmetry_equiv_pos_site_id
 _symmetry_equiv_pos_as_xyz
 1  'x, y, z'
loop_
 _atom_site_type_symbol
 _atom_site_label
 _atom_site_symmetry_multiplicity
 _atom_site_fract_x
 _atom_site_fract_y
 _atom_site_fract_z
 _atom_site_fract_occupancy
 Lu  Lu1  1  0.25000  0.75000  0.50000  1
 Lu  Lu2  1  0.50000  0.50000  -0.00000  1
 O  O1  1  0.09384  0.52296  0.94304  1
 O  O2  1  0.90080  0.34384  0.07088  1
 O  O3  1  0.27296  0.82991  0.92912  1
 O  O4  1  0.17009  0.09920  0.44304  1
 O  O5  1  0.57991  0.15080  0.05696  1
 O  O6  1  0.47704  0.42009  0.57088  1
 O  O7  1  0.84920  0.90616  0.42912  1
 O  O8  1  0.65616  0.72704  0.55696  1
 W  W1  1  0.00000  0.00000  0.00000  1
 W  W2  1  0.75000  0.25000  0.50000  1
