CIF file written using JARVIS-Tools package.
data_GeBr3
_symmetry_space_group_name_H-M  'C2'
_cell_length_a       6.71437
_cell_length_b       6.73714
_cell_length_c       4.71158
_cell_angle_alpha    134.33
_cell_angle_beta     110.451
_cell_angle_gamma    90.741

_symmetry_Int_Tables_number  5
_chemical_formula_structural  GeBr3
_chemical_formula_sum  GeBr3
_cell_volume  131.9221730948832
_cell_formula_units_Z  1
loop_
  _symmetry_equiv_pos_site_id
 _symmetry_equiv_pos_as_xyz
 1  'x, y, z'
loop_
 _atom_site_type_symbol
 _atom_site_label
 _atom_site_symmetry_multiplicity
 _atom_site_fract_x
 _atom_site_fract_y
 _atom_site_fract_z
 _atom_site_fract_occupancy
 Br  Br1  1  0.93388  0.03745  0.15994  1
 Br  Br2  1  0.60551  0.37669  0.83519  1
 Br  Br3  1  0.27714  0.70869  0.50349  1
 Ge  Ge1  1  0.60552  0.16405  0.12264  1
