CIF file written using JARVIS-Tools package.
data_Li3Mn2CoO6
_symmetry_space_group_name_H-M  'P-1'
_cell_length_a       2.97063
_cell_length_b       5.91068
_cell_length_c       6.39025
_cell_angle_alpha    103.002
_cell_angle_beta     103.127
_cell_angle_gamma    94.5143

_symmetry_Int_Tables_number  2
_chemical_formula_structural  Li3Mn2CoO6
_chemical_formula_sum  Li3Mn2CoO6
_cell_volume  105.46877228033102
_cell_formula_units_Z  1
loop_
  _symmetry_equiv_pos_site_id
 _symmetry_equiv_pos_as_xyz
 1  'x, y, z'
loop_
 _atom_site_type_symbol
 _atom_site_label
 _atom_site_symmetry_multiplicity
 _atom_site_fract_x
 _atom_site_fract_y
 _atom_site_fract_z
 _atom_site_fract_occupancy
 Co  Co1  1  0.00000  0.00000  0.00000  1
 Li  Li1  1  -0.00000  0.50000  0.00000  1
 Li  Li2  1  0.65937  0.83450  0.32890  1
 Li  Li3  1  0.34063  0.16550  0.67110  1
 Mn  Mn1  1  0.67847  0.32395  0.33251  1
 Mn  Mn2  1  0.32153  0.67605  0.66749  1
 O  O1  1  0.46690  0.77395  0.98712  1
 O  O2  1  0.19993  0.08315  0.32128  1
 O  O3  1  0.85789  0.42193  0.65745  1
 O  O4  1  0.53310  0.22605  0.01288  1
 O  O5  1  0.14211  0.57807  0.34255  1
 O  O6  1  0.80007  0.91685  0.67872  1
