CIF file written using JARVIS-Tools package.
data_CrO3
_symmetry_space_group_name_H-M  'Pnma'
_cell_length_a       4.98167
_cell_length_b       5.63832
_cell_length_c       7.94716
_cell_angle_alpha    90
_cell_angle_beta     90
_cell_angle_gamma    90

_symmetry_Int_Tables_number  62
_chemical_formula_structural  CrO3
_chemical_formula_sum  Cr4O2
_cell_volume  223.2219687873721
_cell_formula_units_Z  4
loop_
  _symmetry_equiv_pos_site_id
 _symmetry_equiv_pos_as_xyz
 1  'x, y, z'
loop_
 _atom_site_type_symbol
 _atom_site_label
 _atom_site_symmetry_multiplicity
 _atom_site_fract_x
 _atom_site_fract_y
 _atom_site_fract_z
 _atom_site_fract_occupancy
 Cr  Cr1  1  0.94170  0.23497  0.25000  1
 Cr  Cr2  1  0.44170  0.26503  0.75000  1
 Cr  Cr3  1  0.55830  0.73497  0.25000  1
 Cr  Cr4  1  0.05830  0.76503  0.75000  1
 O  O1  1  0.12648  0.19683  0.08898  1
 O  O2  1  0.12648  0.19683  0.41102  1
 O  O3  1  0.81740  0.52876  0.25000  1
 O  O4  1  0.31740  -0.02876  0.75000  1
 O  O5  1  0.62648  0.30317  0.58898  1
 O  O6  1  0.62648  0.30317  0.91102  1
 O  O7  1  0.37352  0.69683  0.08898  1
 O  O8  1  0.37352  0.69683  0.41102  1
 O  O9  1  0.68260  0.02876  0.25000  1
 O  O10  1  0.18260  0.47124  0.75000  1
 O  O11  1  0.87352  0.80317  0.91102  1
 O  O12  1  0.87352  0.80317  0.58898  1
