CIF file written using JARVIS-Tools package.
data_VBr2O
_symmetry_space_group_name_H-M  'Immm'
_cell_length_a       6.86114
_cell_length_b       6.86114
_cell_length_c       6.86114
_cell_angle_alpha    149.423
_cell_angle_beta     149.082
_cell_angle_gamma    44.0406

_symmetry_Int_Tables_number  71
_chemical_formula_structural  VBr2O
_chemical_formula_sum  VBr2O
_cell_volume  84.18019888741006
_cell_formula_units_Z  1
loop_
  _symmetry_equiv_pos_site_id
 _symmetry_equiv_pos_as_xyz
 1  'x, y, z'
loop_
 _atom_site_type_symbol
 _atom_site_label
 _atom_site_symmetry_multiplicity
 _atom_site_fract_x
 _atom_site_fract_y
 _atom_site_fract_z
 _atom_site_fract_occupancy
 Br  Br1  1  0.64058  0.14058  0.50000  1
 Br  Br2  1  0.35942  0.85942  0.50000  1
 O  O1  1  0.00000  0.50000  0.50000  1
 V  V1  1  0.00000  0.00000  0.00000  1
