CIF file written using JARVIS-Tools package.
data_Li5MnCo2O8
_symmetry_space_group_name_H-M  'C2/m'
_cell_length_a       5.64129
_cell_length_b       5.64129
_cell_length_c       4.95746
_cell_angle_alpha    73.3097
_cell_angle_beta     73.3097
_cell_angle_gamma    60.391

_symmetry_Int_Tables_number  12
_chemical_formula_structural  Li5MnCo2O8
_chemical_formula_sum  Li5MnCo2O8
_cell_volume  129.37156578398435
_cell_formula_units_Z  1
loop_
  _symmetry_equiv_pos_site_id
 _symmetry_equiv_pos_as_xyz
 1  'x, y, z'
loop_
 _atom_site_type_symbol
 _atom_site_label
 _atom_site_symmetry_multiplicity
 _atom_site_fract_x
 _atom_site_fract_y
 _atom_site_fract_z
 _atom_site_fract_occupancy
 Co  Co1  1  0.50000  -0.00000  -0.00000  1
 Co  Co2  1  0.00000  0.50000  -0.00000  1
 Li  Li1  1  0.74657  0.74657  0.50222  1
 Li  Li2  1  0.26815  0.73185  0.50000  1
 Li  Li3  1  0.73185  0.26815  0.50000  1
 Li  Li4  1  0.25343  0.25343  0.49778  1
 Li  Li5  1  0.50000  0.50000  -0.00000  1
 Mn  Mn1  1  0.00000  0.00000  0.00000  1
 O  O1  1  0.63891  0.63891  0.22166  1
 O  O2  1  0.11335  0.63879  0.22793  1
 O  O3  1  0.63879  0.11335  0.22793  1
 O  O4  1  0.12961  0.12961  0.22062  1
 O  O5  1  0.87039  0.87039  0.77938  1
 O  O6  1  0.36121  0.88665  0.77207  1
 O  O7  1  0.88665  0.36121  0.77207  1
 O  O8  1  0.36109  0.36109  0.77834  1
