CIF file written using JARVIS-Tools package.
data_LiFeSiO4
_symmetry_space_group_name_H-M  'Pna2_1'
_cell_length_a       5.03292
_cell_length_b       6.63019
_cell_length_c       10.3011
_cell_angle_alpha    90
_cell_angle_beta     90
_cell_angle_gamma    90

_symmetry_Int_Tables_number  33
_chemical_formula_structural  LiFeSiO4
_chemical_formula_sum  Li4Fe4Si4O6
_cell_volume  343.740226745491
_cell_formula_units_Z  4
loop_
  _symmetry_equiv_pos_site_id
 _symmetry_equiv_pos_as_xyz
 1  'x, y, z'
loop_
 _atom_site_type_symbol
 _atom_site_label
 _atom_site_symmetry_multiplicity
 _atom_site_fract_x
 _atom_site_fract_y
 _atom_site_fract_z
 _atom_site_fract_occupancy
 Fe  Fe1  1  0.24749  0.50441  0.16935  1
 Fe  Fe2  1  0.74749  0.00441  0.33065  1
 Fe  Fe3  1  0.24749  0.99559  0.66935  1
 Fe  Fe4  1  0.74749  0.49559  0.83065  1
 Li  Li1  1  0.24490  0.00367  0.15345  1
 Li  Li2  1  0.74490  0.50367  0.34655  1
 Li  Li3  1  0.24490  0.49633  0.65345  1
 Li  Li4  1  0.74490  0.99633  0.84655  1
 O  O1  1  0.07263  0.26798  0.11606  1
 O  O2  1  0.13199  0.55477  0.34175  1
 O  O3  1  0.11587  0.95543  0.33461  1
 O  O4  1  0.18370  0.73780  0.06600  1
 O  O5  1  0.63199  0.05477  0.15825  1
 O  O6  1  0.57263  0.73202  0.88394  1
 O  O7  1  0.68370  0.23780  0.43400  1
 O  O8  1  0.61587  0.45543  0.16539  1
 O  O9  1  0.18370  0.76220  0.56600  1
 O  O10  1  0.11587  0.54457  0.83461  1
 O  O11  1  0.63199  0.44523  0.65825  1
 O  O12  1  0.61587  0.04457  0.66539  1
 O  O13  1  0.57263  0.76798  0.38394  1
 O  O14  1  0.13199  0.94523  0.84175  1
 O  O15  1  0.07263  0.23202  0.61606  1
 O  O16  1  0.68370  0.26220  0.93400  1
 Si  Si1  1  0.74928  0.26089  0.08977  1
 Si  Si2  1  0.24928  0.76089  0.41023  1
 Si  Si3  1  0.74928  0.23911  0.58977  1
 Si  Si4  1  0.24928  0.73911  0.91023  1
