CIF file written using JARVIS-Tools package.
data_Li3MnCoO5
_symmetry_space_group_name_H-M  'Cm'
_cell_length_a       4.99319
_cell_length_b       4.99319
_cell_length_c       12.495
_cell_angle_alpha    78.2753
_cell_angle_beta     78.2752
_cell_angle_gamma    32.9661

_symmetry_Int_Tables_number  8
_chemical_formula_structural  Li3MnCoO5
_chemical_formula_sum  Li6Mn2Co2O0
_cell_volume  165.66318252962517
_cell_formula_units_Z  2
loop_
  _symmetry_equiv_pos_site_id
 _symmetry_equiv_pos_as_xyz
 1  'x, y, z'
loop_
 _atom_site_type_symbol
 _atom_site_label
 _atom_site_symmetry_multiplicity
 _atom_site_fract_x
 _atom_site_fract_y
 _atom_site_fract_z
 _atom_site_fract_occupancy
 Co  Co1  1  0.19824  0.19824  0.59675  1
 Co  Co2  1  0.59991  0.59991  0.79871  1
 Li  Li1  1  0.79370  0.79370  0.40768  1
 Li  Li2  1  0.30023  0.30023  0.89244  1
 Li  Li3  1  0.70153  0.70153  0.10320  1
 Li  Li4  1  0.49748  0.49748  0.49491  1
 Li  Li5  1  0.10283  0.10283  0.31900  1
 Li  Li6  1  0.90269  0.90269  0.69112  1
 Mn  Mn1  1  0.00019  0.00019  -0.00360  1
 Mn  Mn2  1  0.40264  0.40264  0.20785  1
 O  O1  1  0.14650  0.14650  0.46315  1
 O  O2  1  0.56280  0.56280  0.65618  1
 O  O3  1  0.04063  0.04063  0.14180  1
 O  O4  1  0.45497  0.45497  0.33457  1
 O  O5  1  0.83017  0.83017  0.55743  1
 O  O6  1  0.23133  0.23133  0.74941  1
 O  O7  1  0.63895  0.63895  0.94831  1
 O  O8  1  0.36411  0.36411  0.04687  1
 O  O9  1  0.76998  0.76998  0.24234  1
 O  O10  1  0.96112  0.96112  0.85189  1
