CIF file written using JARVIS-Tools package.
data_Li5Mn2CoO8
_symmetry_space_group_name_H-M  'P2/m'
_cell_length_a       2.85242
_cell_length_b       4.92977
_cell_length_c       9.66444
_cell_angle_alpha    100.767
_cell_angle_beta     90
_cell_angle_gamma    90

_symmetry_Int_Tables_number  10
_chemical_formula_structural  Li5Mn2CoO8
_chemical_formula_sum  Li5Mn2CoO8
_cell_volume  133.50651202464363
_cell_formula_units_Z  1
loop_
  _symmetry_equiv_pos_site_id
 _symmetry_equiv_pos_as_xyz
 1  'x, y, z'
loop_
 _atom_site_type_symbol
 _atom_site_label
 _atom_site_symmetry_multiplicity
 _atom_site_fract_x
 _atom_site_fract_y
 _atom_site_fract_z
 _atom_site_fract_occupancy
 Co  Co1  1  0.50000  0.50000  -0.00000  1
 Li  Li1  1  0.50000  0.28278  0.27974  1
 Li  Li2  1  0.50000  0.71722  0.72026  1
 Li  Li3  1  0.00000  0.75264  0.26682  1
 Li  Li4  1  0.00000  0.24736  0.73318  1
 Li  Li5  1  0.00000  0.50000  0.50000  1
 Mn  Mn1  1  0.00000  0.00000  0.00000  1
 Mn  Mn2  1  0.50000  0.00000  0.50000  1
 O  O1  1  0.50000  0.87387  0.10725  1
 O  O2  1  0.50000  0.34505  0.61820  1
 O  O3  1  0.00000  0.37018  0.10684  1
 O  O4  1  0.00000  0.88315  0.61279  1
 O  O5  1  0.50000  0.65495  0.38180  1
 O  O6  1  0.50000  0.12613  0.89275  1
 O  O7  1  0.00000  0.11685  0.38721  1
 O  O8  1  0.00000  0.62982  0.89316  1
