CIF file written using JARVIS-Tools package.
data_CaBr2
_symmetry_space_group_name_H-M  'P4/mmm'
_cell_length_a       9.31995
_cell_length_b       9.31995
_cell_length_c       9.65269
_cell_angle_alpha    90
_cell_angle_beta     90
_cell_angle_gamma    90

_symmetry_Int_Tables_number  123
_chemical_formula_structural  CaBr2
_chemical_formula_sum  CaBr2
_cell_volume  838.4469913693316
_cell_formula_units_Z  1
loop_
  _symmetry_equiv_pos_site_id
 _symmetry_equiv_pos_as_xyz
 1  'x, y, z'
loop_
 _atom_site_type_symbol
 _atom_site_label
 _atom_site_symmetry_multiplicity
 _atom_site_fract_x
 _atom_site_fract_y
 _atom_site_fract_z
 _atom_site_fract_occupancy
 Br  Br1  1  0.00000  0.00000  0.27006  1
 Br  Br2  1  0.00000  0.00000  0.72994  1
 Ca  Ca1  1  0.00000  0.00000  0.00000  1
