CIF file written using JARVIS-Tools package.
data_Li7Co5O12
_symmetry_space_group_name_H-M  'C2/m'
_cell_length_a       14.2142
_cell_length_b       14.2142
_cell_length_c       4.91152
_cell_angle_alpha    80.5363
_cell_angle_beta     80.5363
_cell_angle_gamma    11.472

_symmetry_Int_Tables_number  12
_chemical_formula_structural  Li7Co5O12
_chemical_formula_sum  Li7Co5O2
_cell_volume  194.65191557617257
_cell_formula_units_Z  1
loop_
  _symmetry_equiv_pos_site_id
 _symmetry_equiv_pos_as_xyz
 1  'x, y, z'
loop_
 _atom_site_type_symbol
 _atom_site_label
 _atom_site_symmetry_multiplicity
 _atom_site_fract_x
 _atom_site_fract_y
 _atom_site_fract_z
 _atom_site_fract_occupancy
 Co  Co1  1  0.16667  0.16667  0.16283  1
 Co  Co2  1  0.00000  0.00000  0.00000  1
 Co  Co3  1  0.83333  0.83333  0.83717  1
 Co  Co4  1  0.33321  0.33321  0.33753  1
 Co  Co5  1  0.66679  0.66679  0.66247  1
 Li  Li1  1  0.50000  0.50000  0.50000  1
 Li  Li2  1  0.25001  0.25001  0.74984  1
 Li  Li3  1  0.07658  0.07658  0.57047  1
 Li  Li4  1  0.92342  0.92342  0.42953  1
 Li  Li5  1  0.57943  0.57943  0.08321  1
 Li  Li6  1  0.42057  0.42057  0.91679  1
 Li  Li7  1  0.74999  0.74999  0.25016  1
 O  O1  1  0.46243  0.46243  0.19135  1
 O  O2  1  0.29648  0.29648  0.03842  1
 O  O3  1  0.13173  0.13173  0.86170  1
 O  O4  1  0.86827  0.86827  0.13830  1
 O  O5  1  0.20363  0.20363  0.46058  1
 O  O6  1  0.70352  0.70352  0.96158  1
 O  O7  1  0.53757  0.53757  0.80865  1
 O  O8  1  0.36889  0.36889  0.63601  1
 O  O9  1  0.96080  0.96080  0.73601  1
 O  O10  1  0.79637  0.79637  0.53942  1
 O  O11  1  0.03920  0.03920  0.26399  1
 O  O12  1  0.63111  0.63111  0.36399  1
