CIF file written using JARVIS-Tools package.
data_CaTe3
_symmetry_space_group_name_H-M  'C2'
_cell_length_a       5.52034
_cell_length_b       4.44949
_cell_length_c       6.56068
_cell_angle_alpha    89.9608
_cell_angle_beta     76.5845
_cell_angle_gamma    66.125

_symmetry_Int_Tables_number  5
_chemical_formula_structural  CaTe3
_chemical_formula_sum  CaTe3
_cell_volume  142.54809078211053
_cell_formula_units_Z  1
loop_
  _symmetry_equiv_pos_site_id
 _symmetry_equiv_pos_as_xyz
 1  'x, y, z'
loop_
 _atom_site_type_symbol
 _atom_site_label
 _atom_site_symmetry_multiplicity
 _atom_site_fract_x
 _atom_site_fract_y
 _atom_site_fract_z
 _atom_site_fract_occupancy
 Ca  Ca1  1  0.12446  0.93336  0.76681  1
 Te  Te1  1  0.79190  0.60194  0.57143  1
 Te  Te2  1  0.12441  0.01007  0.26675  1
 Te  Te3  1  0.45665  0.26823  0.96284  1
