CIF file written using JARVIS-Tools package.
data_HeU3
_symmetry_space_group_name_H-M  'Pmm2'
_cell_length_a       2.72355
_cell_length_b       5.75054
_cell_length_c       4.80288
_cell_angle_alpha    90
_cell_angle_beta     90
_cell_angle_gamma    90

_symmetry_Int_Tables_number  25
_chemical_formula_structural  HeU3
_chemical_formula_sum  HeU3
_cell_volume  75.22214152083963
_cell_formula_units_Z  1
loop_
  _symmetry_equiv_pos_site_id
 _symmetry_equiv_pos_as_xyz
 1  'x, y, z'
loop_
 _atom_site_type_symbol
 _atom_site_label
 _atom_site_symmetry_multiplicity
 _atom_site_fract_x
 _atom_site_fract_y
 _atom_site_fract_z
 _atom_site_fract_occupancy
 He  He1  1  0.00000  0.08114  0.75000  1
 U  U1  1  0.50000  0.40027  0.25000  1
 U  U2  1  0.50000  0.59795  0.75000  1
 U  U3  1  0.00000  0.92064  0.25000  1
