CIF file written using JARVIS-Tools package.
data_Li7Mn2Co3O12
_symmetry_space_group_name_H-M  'P1'
_cell_length_a       4.9124
_cell_length_b       5.72999
_cell_length_c       7.5515
_cell_angle_alpha    78.3244
_cell_angle_beta     77.4381
_cell_angle_gamma    73.2685

_symmetry_Int_Tables_number  1
_chemical_formula_structural  Li7Mn2Co3O12
_chemical_formula_sum  Li7Mn2Co3O2
_cell_volume  196.45526421639045
_cell_formula_units_Z  1
loop_
  _symmetry_equiv_pos_site_id
 _symmetry_equiv_pos_as_xyz
 1  'x, y, z'
loop_
 _atom_site_type_symbol
 _atom_site_label
 _atom_site_symmetry_multiplicity
 _atom_site_fract_x
 _atom_site_fract_y
 _atom_site_fract_z
 _atom_site_fract_occupancy
 Co  Co1  1  0.00094  0.33582  0.66329  1
 Co  Co2  1  0.50029  0.50189  0.49799  1
 Co  Co3  1  0.50077  0.16589  0.83314  1
 Li  Li1  1  0.99874  0.66115  0.34065  1
 Li  Li2  1  0.50418  0.99887  0.49900  1
 Li  Li3  1  0.00400  0.50025  0.00480  1
 Li  Li4  1  0.50538  0.66289  0.82598  1
 Li  Li5  1  0.48424  0.33909  0.17776  1
 Li  Li6  1  -0.00272  0.82576  0.65161  1
 Li  Li7  1  0.99902  0.17734  0.34078  1
 Mn  Mn1  1  0.99963  0.99848  0.00161  1
 Mn  Mn2  1  0.49985  0.82547  0.17527  1
 O  O1  1  0.25340  0.14894  0.07534  1
 O  O2  1  0.75011  0.64436  0.58476  1
 O  O3  1  0.76102  0.31214  0.90638  1
 O  O4  1  0.73882  0.18994  0.59612  1
 O  O5  1  0.25113  0.33900  0.43300  1
 O  O6  1  0.23992  0.01906  0.76121  1
 O  O7  1  0.72484  0.51668  0.25230  1
 O  O8  1  0.25342  0.69267  0.07759  1
 O  O9  1  0.74775  0.99658  0.22993  1
 O  O10  1  0.26271  0.47400  0.73774  1
 O  O11  1  0.74741  0.84954  0.92711  1
 O  O12  1  0.27515  0.82419  0.40662  1
