CIF file written using JARVIS-Tools package.
data_Li4MnCo2O7
_symmetry_space_group_name_H-M  'Cm'
_cell_length_a       2.83402
_cell_length_b       5.72708
_cell_length_c       14.3268
_cell_angle_alpha    83.7832
_cell_angle_beta     84.3302
_cell_angle_gamma    90.0404

_symmetry_Int_Tables_number  8
_chemical_formula_structural  Li4MnCo2O7
_chemical_formula_sum  Li8Mn2Co4O4
_cell_volume  230.01910070445066
_cell_formula_units_Z  2
loop_
  _symmetry_equiv_pos_site_id
 _symmetry_equiv_pos_as_xyz
 1  'x, y, z'
loop_
 _atom_site_type_symbol
 _atom_site_label
 _atom_site_symmetry_multiplicity
 _atom_site_fract_x
 _atom_site_fract_y
 _atom_site_fract_z
 _atom_site_fract_occupancy
 Co  Co1  1  0.28551  0.14196  0.42886  1
 Co  Co2  1  0.71339  0.84969  0.57294  1
 Co  Co3  1  0.42762  0.71590  0.14489  1
 Co  Co4  1  0.85659  0.42940  0.28682  1
 Li  Li1  1  0.14553  0.58080  0.70872  1
 Li  Li2  1  0.70958  0.36398  0.58049  1
 Li  Li3  1  0.00006  0.50364  -0.00010  1
 Li  Li4  1  0.85453  0.92715  0.29096  1
 Li  Li5  1  0.42570  0.21945  0.14857  1
 Li  Li6  1  0.14650  0.06342  0.70713  1
 Li  Li7  1  0.58161  0.78238  0.83689  1
 Li  Li8  1  0.28349  0.63882  0.43293  1
 Mn  Mn1  1  -0.00114  -0.00021  0.00242  1
 Mn  Mn2  1  0.57498  0.29267  0.85035  1
 O  O1  1  0.93083  0.95046  0.13895  1
 O  O2  1  0.64847  0.82447  0.70295  1
 O  O3  1  0.07059  0.51088  0.85957  1
 O  O4  1  0.50064  0.23145  0.99931  1
 O  O5  1  0.21507  0.62820  0.56907  1
 O  O6  1  0.78293  0.91337  0.43352  1
 O  O7  1  0.63684  0.31166  0.72649  1
 O  O8  1  0.92494  0.48867  0.14974  1
 O  O9  1  0.06664  0.04781  0.86644  1
 O  O10  1  0.49635  0.76651  0.00699  1
 O  O11  1  0.78956  0.37161  0.42122  1
 O  O12  1  0.36033  0.66032  0.27980  1
 O  O13  1  0.35407  0.19967  0.29138  1
 O  O14  1  0.21879  0.08588  0.56269  1
