CIF file written using JARVIS-Tools package.
data_U3I
_symmetry_space_group_name_H-M  'Pmm2'
_cell_length_a       3.23987
_cell_length_b       5.34929
_cell_length_c       5.30319
_cell_angle_alpha    90
_cell_angle_beta     90
_cell_angle_gamma    90

_symmetry_Int_Tables_number  25
_chemical_formula_structural  U3I
_chemical_formula_sum  U3I
_cell_volume  91.90967134290062
_cell_formula_units_Z  1
loop_
  _symmetry_equiv_pos_site_id
 _symmetry_equiv_pos_as_xyz
 1  'x, y, z'
loop_
 _atom_site_type_symbol
 _atom_site_label
 _atom_site_symmetry_multiplicity
 _atom_site_fract_x
 _atom_site_fract_y
 _atom_site_fract_z
 _atom_site_fract_occupancy
 I  I1  1  0.00000  0.17535  0.75000  1
 U  U1  1  0.50000  0.32379  0.25000  1
 U  U2  1  0.50000  0.66938  0.75000  1
 U  U3  1  0.00000  0.83147  0.25000  1
