CIF file written using JARVIS-Tools package.
data_Li7Mn2Co3O12
_symmetry_space_group_name_H-M  'P1'
_cell_length_a       5.6748
_cell_length_b       5.72164
_cell_length_c       6.38086
_cell_angle_alpha    103.9
_cell_angle_beta     102.77
_cell_angle_gamma    90.0833

_symmetry_Int_Tables_number  1
_chemical_formula_structural  Li7Mn2Co3O12
_chemical_formula_sum  Li7Mn2Co3O2
_cell_volume  195.81443141503027
_cell_formula_units_Z  1
loop_
  _symmetry_equiv_pos_site_id
 _symmetry_equiv_pos_as_xyz
 1  'x, y, z'
loop_
 _atom_site_type_symbol
 _atom_site_label
 _atom_site_symmetry_multiplicity
 _atom_site_fract_x
 _atom_site_fract_y
 _atom_site_fract_z
 _atom_site_fract_occupancy
 Co  Co1  1  0.66576  0.67005  0.66812  1
 Co  Co2  1  0.16985  0.67040  0.66886  1
 Co  Co3  1  0.33250  0.33065  0.33099  1
 Li  Li1  1  0.49815  0.99776  0.99621  1
 Li  Li2  1  0.00126  0.50000  0.99596  1
 Li  Li3  1  0.82245  0.83296  0.32358  1
 Li  Li4  1  0.33964  0.83438  0.33261  1
 Li  Li5  1  0.49451  0.50554  0.99642  1
 Li  Li6  1  0.65821  0.16455  0.67475  1
 Li  Li7  1  0.18284  0.16351  0.67763  1
 Mn  Mn1  1  0.00365  0.99508  0.99743  1
 Mn  Mn2  1  0.82648  0.33006  0.33128  1
 O  O1  1  0.24011  0.24005  0.01193  1
 O  O2  1  0.41673  0.89295  0.66257  1
 O  O3  1  0.58545  0.56490  0.34381  1
 O  O4  1  0.23619  0.75898  0.98968  1
 O  O5  1  0.41257  0.43891  0.65104  1
 O  O6  1  0.91544  0.43238  0.65153  1
 O  O7  1  0.75957  0.75899  0.98662  1
 O  O8  1  0.07760  0.09720  0.32121  1
 O  O9  1  0.92114  0.90165  0.68022  1
 O  O10  1  0.08491  0.56611  0.34944  1
 O  O11  1  0.58830  0.10838  0.34028  1
 O  O12  1  0.76668  0.24455  0.01785  1
