CIF file written using JARVIS-Tools package.
data_Li7Mn2Co3O12
_symmetry_space_group_name_H-M  'P1'
_cell_length_a       4.91367
_cell_length_b       4.97689
_cell_length_c       8.54548
_cell_angle_alpha    72.6989
_cell_angle_beta     84.4122
_cell_angle_gamma    80.3996

_symmetry_Int_Tables_number  1
_chemical_formula_structural  Li7Mn2Co3O12
_chemical_formula_sum  Li7Mn2Co3O2
_cell_volume  196.47482858615552
_cell_formula_units_Z  1
loop_
  _symmetry_equiv_pos_site_id
 _symmetry_equiv_pos_as_xyz
 1  'x, y, z'
loop_
 _atom_site_type_symbol
 _atom_site_label
 _atom_site_symmetry_multiplicity
 _atom_site_fract_x
 _atom_site_fract_y
 _atom_site_fract_z
 _atom_site_fract_occupancy
 Co  Co1  1  0.49963  0.16636  0.83291  1
 Co  Co2  1  0.49985  0.50082  0.49806  1
 Co  Co3  1  0.00033  0.33522  0.66326  1
 Li  Li1  1  0.00045  0.65888  0.34132  1
 Li  Li2  1  0.76279  0.91514  0.57385  1
 Li  Li3  1  0.24485  0.41901  0.09050  1
 Li  Li4  1  0.23576  0.08241  0.41906  1
 Li  Li5  1  0.25135  0.74749  0.74201  1
 Li  Li6  1  0.74836  0.58694  0.91239  1
 Li  Li7  1  0.76110  0.24921  0.26230  1
 Mn  Mn1  1  0.99920  0.00024  0.00070  1
 Mn  Mn2  1  0.49990  0.82710  0.17521  1
 O  O1  1  0.36960  0.15489  0.63192  1
 O  O2  1  0.86960  0.98097  0.79730  1
 O  O3  1  0.36580  0.81251  0.96327  1
 O  O4  1  0.63022  0.50975  0.70284  1
 O  O5  1  0.60594  0.86238  0.36864  1
 O  O6  1  0.63369  0.18613  0.03724  1
 O  O7  1  0.12940  0.35068  0.87027  1
 O  O8  1  0.13562  0.03710  0.19258  1
 O  O9  1  0.86309  0.65718  0.11617  1
 O  O10  1  0.39267  0.48056  0.29056  1
 O  O11  1  0.13583  0.68000  0.54700  1
 O  O12  1  0.86496  0.29904  0.47064  1
