CIF file written using JARVIS-Tools package.
data_Sn7Kr
_symmetry_space_group_name_H-M  'P-43m'
_cell_length_a       7.09214
_cell_length_b       7.09214
_cell_length_c       7.09214
_cell_angle_alpha    90
_cell_angle_beta     90
_cell_angle_gamma    90

_symmetry_Int_Tables_number  215
_chemical_formula_structural  Sn7Kr
_chemical_formula_sum  Sn7Kr
_cell_volume  356.7232220413319
_cell_formula_units_Z  1
loop_
  _symmetry_equiv_pos_site_id
 _symmetry_equiv_pos_as_xyz
 1  'x, y, z'
loop_
 _atom_site_type_symbol
 _atom_site_label
 _atom_site_symmetry_multiplicity
 _atom_site_fract_x
 _atom_site_fract_y
 _atom_site_fract_z
 _atom_site_fract_occupancy
 Kr  Kr1  1  0.00000  0.00000  0.50000  1
 Sn  Sn1  1  0.31053  0.31053  0.81053  1
 Sn  Sn2  1  0.00000  0.50000  0.00000  1
 Sn  Sn3  1  0.31053  0.68947  0.18947  1
 Sn  Sn4  1  0.50000  0.00000  0.00000  1
 Sn  Sn5  1  0.68947  0.31053  0.18947  1
 Sn  Sn6  1  0.50000  0.50000  0.50000  1
 Sn  Sn7  1  0.68947  0.68947  0.81053  1
