CIF file written using JARVIS-Tools package.
data_Li7Mn2Co3O12
_symmetry_space_group_name_H-M  'Cm'
_cell_length_a       4.9951
_cell_length_b       4.9951
_cell_length_c       15.0583
_cell_angle_alpha    81.9691
_cell_angle_beta     81.9691
_cell_angle_gamma    32.805

_symmetry_Int_Tables_number  8
_chemical_formula_structural  Li7Mn2Co3O12
_chemical_formula_sum  Li7Mn2Co3O2
_cell_volume  201.387675917753
_cell_formula_units_Z  1
loop_
  _symmetry_equiv_pos_site_id
 _symmetry_equiv_pos_as_xyz
 1  'x, y, z'
loop_
 _atom_site_type_symbol
 _atom_site_label
 _atom_site_symmetry_multiplicity
 _atom_site_fract_x
 _atom_site_fract_y
 _atom_site_fract_z
 _atom_site_fract_occupancy
 Co  Co1  1  0.98204  0.98204  0.35119  1
 Co  Co2  1  0.50096  0.50096  0.83238  1
 Co  Co3  1  -0.00309  -0.00309  0.66636  1
 Li  Li1  1  0.48883  0.48883  0.50962  1
 Li  Li2  1  0.75731  0.75731  0.90877  1
 Li  Li3  1  0.26170  0.26170  0.08090  1
 Li  Li4  1  0.74740  0.74740  0.57991  1
 Li  Li5  1  0.22137  0.22137  0.43686  1
 Li  Li6  1  0.74524  0.74524  0.25653  1
 Li  Li7  1  0.24813  0.24813  0.74390  1
 Mn  Mn1  1  0.00919  0.00919  0.99587  1
 Mn  Mn2  1  0.51332  0.51332  0.16416  1
 O  O1  1  0.10942  0.10942  0.55777  1
 O  O2  1  0.61032  0.61032  0.37029  1
 O  O3  1  0.12960  0.12960  0.19295  1
 O  O4  1  0.89226  0.89226  0.79182  1
 O  O5  1  0.38335  0.38335  0.63450  1
 O  O6  1  0.90067  0.90067  0.11432  1
 O  O7  1  0.40562  0.40562  0.27508  1
 O  O8  1  0.39337  0.39337  0.95506  1
 O  O9  1  0.11460  0.11460  0.87621  1
 O  O10  1  0.60433  0.60433  0.71550  1
 O  O11  1  0.86135  0.86135  0.45444  1
 O  O12  1  0.62273  0.62273  0.03561  1
