CIF file written using JARVIS-Tools package.
data_CaAl2As2
_symmetry_space_group_name_H-M  'R-3m'
_cell_length_a       8.81335
_cell_length_b       8.81335
_cell_length_c       8.81335
_cell_angle_alpha    26.2314
_cell_angle_beta     26.2314
_cell_angle_gamma    26.2314

_symmetry_Int_Tables_number  166
_chemical_formula_structural  CaAl2As2
_chemical_formula_sum  CaAl2As2
_cell_volume  117.84398060751931
_cell_formula_units_Z  1
loop_
  _symmetry_equiv_pos_site_id
 _symmetry_equiv_pos_as_xyz
 1  'x, y, z'
loop_
 _atom_site_type_symbol
 _atom_site_label
 _atom_site_symmetry_multiplicity
 _atom_site_fract_x
 _atom_site_fract_y
 _atom_site_fract_z
 _atom_site_fract_occupancy
 Al  Al1  1  0.44983  0.44983  0.44983  1
 Al  Al2  1  0.55017  0.55017  0.55017  1
 As  As1  1  0.25824  0.25824  0.25824  1
 As  As2  1  0.74176  0.74176  0.74176  1
 Ca  Ca1  1  0.00000  0.00000  0.00000  1
