CIF file written using JARVIS-Tools package.
data_TbU3
_symmetry_space_group_name_H-M  'Pmm2'
_cell_length_a       2.92473
_cell_length_b       5.93781
_cell_length_c       5.14601
_cell_angle_alpha    90
_cell_angle_beta     90
_cell_angle_gamma    90

_symmetry_Int_Tables_number  25
_chemical_formula_structural  TbU3
_chemical_formula_sum  TbU3
_cell_volume  89.36833103604465
_cell_formula_units_Z  1
loop_
  _symmetry_equiv_pos_site_id
 _symmetry_equiv_pos_as_xyz
 1  'x, y, z'
loop_
 _atom_site_type_symbol
 _atom_site_label
 _atom_site_symmetry_multiplicity
 _atom_site_fract_x
 _atom_site_fract_y
 _atom_site_fract_z
 _atom_site_fract_occupancy
 Tb  Tb1  1  0.00000  0.10785  0.75000  1
 U  U1  1  0.50000  0.40935  0.25000  1
 U  U2  1  0.50000  0.60664  0.75000  1
 U  U3  1  0.00000  0.87616  0.25000  1
