CIF file written using JARVIS-Tools package.
data_SmU3
_symmetry_space_group_name_H-M  'Pmm2'
_cell_length_a       2.93112
_cell_length_b       6.02477
_cell_length_c       5.14516
_cell_angle_alpha    90
_cell_angle_beta     90
_cell_angle_gamma    90

_symmetry_Int_Tables_number  25
_chemical_formula_structural  SmU3
_chemical_formula_sum  SmU3
_cell_volume  90.85996213500319
_cell_formula_units_Z  1
loop_
  _symmetry_equiv_pos_site_id
 _symmetry_equiv_pos_as_xyz
 1  'x, y, z'
loop_
 _atom_site_type_symbol
 _atom_site_label
 _atom_site_symmetry_multiplicity
 _atom_site_fract_x
 _atom_site_fract_y
 _atom_site_fract_z
 _atom_site_fract_occupancy
 Sm  Sm1  1  0.00000  0.10598  0.75000  1
 U  U1  1  0.50000  0.41443  0.25000  1
 U  U2  1  0.50000  0.60615  0.75000  1
 U  U3  1  0.00000  0.87344  0.25000  1
