CIF file written using JARVIS-Tools package.
data_U3Ta
_symmetry_space_group_name_H-M  'Pmm2'
_cell_length_a       2.86999
_cell_length_b       5.66565
_cell_length_c       5.03919
_cell_angle_alpha    90
_cell_angle_beta     90
_cell_angle_gamma    90

_symmetry_Int_Tables_number  25
_chemical_formula_structural  U3Ta
_chemical_formula_sum  U3Ta
_cell_volume  81.93909491652497
_cell_formula_units_Z  1
loop_
  _symmetry_equiv_pos_site_id
 _symmetry_equiv_pos_as_xyz
 1  'x, y, z'
loop_
 _atom_site_type_symbol
 _atom_site_label
 _atom_site_symmetry_multiplicity
 _atom_site_fract_x
 _atom_site_fract_y
 _atom_site_fract_z
 _atom_site_fract_occupancy
 Ta  Ta1  1  0.00000  0.11230  0.75000  1
 U  U1  1  0.50000  0.38949  0.25000  1
 U  U2  1  0.50000  0.60674  0.75000  1
 U  U3  1  0.00000  0.89146  0.25000  1
