CIF file written using JARVIS-Tools package.
data_Li7Mn2Co3O12
_symmetry_space_group_name_H-M  'Pm'
_cell_length_a       2.85462
_cell_length_b       4.91818
_cell_length_c       14.1578
_cell_angle_alpha    89.261
_cell_angle_beta     90
_cell_angle_gamma    90

_symmetry_Int_Tables_number  6
_chemical_formula_structural  Li7Mn2Co3O12
_chemical_formula_sum  Li7Mn2Co3O2
_cell_volume  198.75294624030545
_cell_formula_units_Z  1
loop_
  _symmetry_equiv_pos_site_id
 _symmetry_equiv_pos_as_xyz
 1  'x, y, z'
loop_
 _atom_site_type_symbol
 _atom_site_label
 _atom_site_symmetry_multiplicity
 _atom_site_fract_x
 _atom_site_fract_y
 _atom_site_fract_z
 _atom_site_fract_occupancy
 Co  Co1  1  0.50000  0.49529  0.00002  1
 Co  Co2  1  0.50000  0.16800  0.33315  1
 Co  Co3  1  0.00000  0.33648  0.66690  1
 Li  Li1  1  0.00000  0.66787  0.33369  1
 Li  Li2  1  0.50000  0.51629  0.47929  1
 Li  Li3  1  0.00000  0.00220  0.48560  1
 Li  Li4  1  0.00000  0.33715  0.17971  1
 Li  Li5  1  0.00000  0.65953  0.83479  1
 Li  Li6  1  0.50000  0.81615  0.18889  1
 Li  Li7  1  0.50000  0.17192  0.83184  1
 Mn  Mn1  1  0.00000  0.99397  0.00079  1
 Mn  Mn2  1  0.50000  0.83706  0.66570  1
 O  O1  1  0.00000  0.66233  0.07084  1
 O  O2  1  0.50000  0.86167  0.41166  1
 O  O3  1  0.00000  0.99946  0.74215  1
 O  O4  1  0.50000  0.47413  0.25503  1
 O  O5  1  0.50000  0.17092  0.59688  1
 O  O6  1  0.50000  0.83143  0.92442  1
 O  O7  1  0.00000  0.67102  0.59435  1
 O  O8  1  0.00000  0.01532  0.25886  1
 O  O9  1  0.50000  0.15892  0.07117  1
 O  O10  1  0.00000  0.32084  0.40744  1
 O  O11  1  0.00000  0.32726  0.92538  1
 O  O12  1  0.50000  0.50481  0.74147  1
