CIF file written using JARVIS-Tools package.
data_MnVP2O8
_symmetry_space_group_name_H-M  'P2_1/m'
_cell_length_a       4.77942
_cell_length_b       9.80976
_cell_length_c       5.806
_cell_angle_alpha    90
_cell_angle_beta     90
_cell_angle_gamma    91.2355

_symmetry_Int_Tables_number  11
_chemical_formula_structural  MnVP2O8
_chemical_formula_sum  Mn2V2P4O6
_cell_volume  272.15047390048795
_cell_formula_units_Z  2
loop_
  _symmetry_equiv_pos_site_id
 _symmetry_equiv_pos_as_xyz
 1  'x, y, z'
loop_
 _atom_site_type_symbol
 _atom_site_label
 _atom_site_symmetry_multiplicity
 _atom_site_fract_x
 _atom_site_fract_y
 _atom_site_fract_z
 _atom_site_fract_occupancy
 Mn  Mn1  1  0.92947  0.27660  0.25000  1
 Mn  Mn2  1  0.07053  0.72340  0.75000  1
 O  O1  1  0.67812  0.06444  0.75000  1
 O  O2  1  0.32188  0.93556  0.25000  1
 O  O3  1  0.71290  0.10931  0.25000  1
 O  O4  1  0.28298  0.66657  0.04586  1
 O  O5  1  0.18801  0.37780  0.75000  1
 O  O6  1  0.81199  0.62220  0.25000  1
 O  O7  1  0.28710  0.89069  0.75000  1
 O  O8  1  0.83107  0.56095  0.75000  1
 O  O9  1  0.25665  0.16252  0.03868  1
 O  O10  1  0.25665  0.16252  0.46132  1
 O  O11  1  0.74335  0.83748  0.53867  1
 O  O12  1  0.74335  0.83748  0.96133  1
 O  O13  1  0.71702  0.33342  0.95414  1
 O  O14  1  0.71702  0.33342  0.54586  1
 O  O15  1  0.16893  0.43905  0.25000  1
 O  O16  1  0.28298  0.66657  0.45414  1
 P  P1  1  0.12321  0.59179  0.25000  1
 P  P2  1  0.87679  0.40821  0.75000  1
 P  P3  1  0.60394  0.91194  0.75000  1
 P  P4  1  0.39606  0.08806  0.25000  1
 V  V1  1  0.56306  0.77648  0.25000  1
 V  V2  1  0.43695  0.22352  0.75000  1
