CIF file written using JARVIS-Tools package.
data_U3V
_symmetry_space_group_name_H-M  'Pmm2'
_cell_length_a       2.82991
_cell_length_b       5.5016
_cell_length_c       4.87515
_cell_angle_alpha    90
_cell_angle_beta     90
_cell_angle_gamma    90

_symmetry_Int_Tables_number  25
_chemical_formula_structural  U3V
_chemical_formula_sum  U3V
_cell_volume  75.90143764761048
_cell_formula_units_Z  1
loop_
  _symmetry_equiv_pos_site_id
 _symmetry_equiv_pos_as_xyz
 1  'x, y, z'
loop_
 _atom_site_type_symbol
 _atom_site_label
 _atom_site_symmetry_multiplicity
 _atom_site_fract_x
 _atom_site_fract_y
 _atom_site_fract_z
 _atom_site_fract_occupancy
 U  U1  1  0.50000  0.39629  0.25000  1
 U  U2  1  0.50000  0.60191  0.75000  1
 U  U3  1  0.00000  0.91612  0.25000  1
 V  V1  1  0.00000  0.08568  0.75000  1
