CIF file written using JARVIS-Tools package.
data_U3Ti
_symmetry_space_group_name_H-M  'Pmm2'
_cell_length_a       2.83728
_cell_length_b       5.59125
_cell_length_c       4.95186
_cell_angle_alpha    90
_cell_angle_beta     90
_cell_angle_gamma    90

_symmetry_Int_Tables_number  25
_chemical_formula_structural  U3Ti
_chemical_formula_sum  U3Ti
_cell_volume  78.55607630252322
_cell_formula_units_Z  1
loop_
  _symmetry_equiv_pos_site_id
 _symmetry_equiv_pos_as_xyz
 1  'x, y, z'
loop_
 _atom_site_type_symbol
 _atom_site_label
 _atom_site_symmetry_multiplicity
 _atom_site_fract_x
 _atom_site_fract_y
 _atom_site_fract_z
 _atom_site_fract_occupancy
 Ti  Ti1  1  0.00000  0.10147  0.75000  1
 U  U1  1  0.50000  0.39311  0.25000  1
 U  U2  1  0.50000  0.60419  0.75000  1
 U  U3  1  0.00000  0.90123  0.25000  1
