CIF file written using JARVIS-Tools package.
data_LiVCrO4
_symmetry_space_group_name_H-M  'Imma'
_cell_length_a       5.7956
_cell_length_b       5.79557
_cell_length_c       5.79561
_cell_angle_alpha    119.298
_cell_angle_beta     89.6345
_cell_angle_gamma    59.717

_symmetry_Int_Tables_number  74
_chemical_formula_structural  LiVCrO4
_chemical_formula_sum  Li2V2Cr2O8
_cell_volume  138.07000667088732
_cell_formula_units_Z  2
loop_
  _symmetry_equiv_pos_site_id
 _symmetry_equiv_pos_as_xyz
 1  'x, y, z'
loop_
 _atom_site_type_symbol
 _atom_site_label
 _atom_site_symmetry_multiplicity
 _atom_site_fract_x
 _atom_site_fract_y
 _atom_site_fract_z
 _atom_site_fract_occupancy
 Cr  Cr1  1  0.50000  0.50000  -0.00000  1
 Cr  Cr2  1  0.50000  0.00000  0.50000  1
 Li  Li1  1  0.00000  -0.00000  0.50000  1
 Li  Li2  1  0.50000  0.50000  0.50000  1
 O  O1  1  0.25887  0.49261  0.23375  1
 O  O2  1  0.74114  -0.00739  0.25148  1
 O  O3  1  0.25886  0.00739  0.74852  1
 O  O4  1  0.74113  0.50739  0.76625  1
 O  O5  1  0.26462  0.98599  0.24940  1
 O  O6  1  0.73658  0.51401  0.24940  1
 O  O7  1  0.73538  0.01401  0.75060  1
 O  O8  1  0.26342  0.48599  0.75061  1
 V  V1  1  0.13085  0.25000  0.11915  1
 V  V2  1  0.86915  0.75000  0.88085  1
