CIF file written using JARVIS-Tools package.
data_Li3Cr5O8
_symmetry_space_group_name_H-M  'R-3m'
_cell_length_a       5.88388
_cell_length_b       5.88388
_cell_length_c       5.88388
_cell_angle_alpha    59.9925
_cell_angle_beta     59.9925
_cell_angle_gamma    59.9925

_symmetry_Int_Tables_number  166
_chemical_formula_structural  Li3Cr5O8
_chemical_formula_sum  Li3Cr5O8
_cell_volume  144.01290726645988
_cell_formula_units_Z  1
loop_
  _symmetry_equiv_pos_site_id
 _symmetry_equiv_pos_as_xyz
 1  'x, y, z'
loop_
 _atom_site_type_symbol
 _atom_site_label
 _atom_site_symmetry_multiplicity
 _atom_site_fract_x
 _atom_site_fract_y
 _atom_site_fract_z
 _atom_site_fract_occupancy
 Cr  Cr1  1  0.50000  0.50000  0.50000  1
 Cr  Cr2  1  0.00000  0.00000  0.00000  1
 Cr  Cr3  1  0.50000  0.50000  -0.00000  1
 Cr  Cr4  1  0.50000  0.00000  0.50000  1
 Cr  Cr5  1  -0.00000  0.50000  0.50000  1
 Li  Li1  1  -0.00000  0.50000  -0.00000  1
 Li  Li2  1  0.50000  -0.00000  -0.00000  1
 Li  Li3  1  0.00000  -0.00000  0.50000  1
 O  O1  1  0.74204  0.74204  0.74204  1
 O  O2  1  0.25041  0.25041  0.73718  1
 O  O3  1  0.25041  0.73718  0.25041  1
 O  O4  1  0.73718  0.25041  0.25041  1
 O  O5  1  0.26282  0.74959  0.74959  1
 O  O6  1  0.74959  0.26282  0.74959  1
 O  O7  1  0.74959  0.74959  0.26282  1
 O  O8  1  0.25796  0.25796  0.25796  1
