CIF file written using JARVIS-Tools package.
data_YbU3
_symmetry_space_group_name_H-M  'Pmm2'
_cell_length_a       2.82828
_cell_length_b       5.92112
_cell_length_c       5.09512
_cell_angle_alpha    90
_cell_angle_beta     90
_cell_angle_gamma    90

_symmetry_Int_Tables_number  25
_chemical_formula_structural  YbU3
_chemical_formula_sum  YbU3
_cell_volume  85.32591760979001
_cell_formula_units_Z  1
loop_
  _symmetry_equiv_pos_site_id
 _symmetry_equiv_pos_as_xyz
 1  'x, y, z'
loop_
 _atom_site_type_symbol
 _atom_site_label
 _atom_site_symmetry_multiplicity
 _atom_site_fract_x
 _atom_site_fract_y
 _atom_site_fract_z
 _atom_site_fract_occupancy
 U  U1  1  0.50000  0.40386  0.25000  1
 U  U2  1  0.50000  0.60773  0.75000  1
 U  U3  1  0.00000  0.87927  0.25000  1
 Yb  Yb1  1  0.00000  0.10914  0.75000  1
