CIF file written using JARVIS-Tools package.
data_U3W
_symmetry_space_group_name_H-M  'Pmm2'
_cell_length_a       2.85397
_cell_length_b       5.59483
_cell_length_c       5.01057
_cell_angle_alpha    90
_cell_angle_beta     90
_cell_angle_gamma    90

_symmetry_Int_Tables_number  25
_chemical_formula_structural  U3W
_chemical_formula_sum  U3W
_cell_volume  80.00625458064123
_cell_formula_units_Z  1
loop_
  _symmetry_equiv_pos_site_id
 _symmetry_equiv_pos_as_xyz
 1  'x, y, z'
loop_
 _atom_site_type_symbol
 _atom_site_label
 _atom_site_symmetry_multiplicity
 _atom_site_fract_x
 _atom_site_fract_y
 _atom_site_fract_z
 _atom_site_fract_occupancy
 U  U1  1  0.50000  0.39035  0.25000  1
 U  U2  1  0.50000  0.60345  0.75000  1
 U  U3  1  0.00000  0.90293  0.25000  1
 W  W1  1  0.00000  0.10327  0.75000  1
