CIF file written using JARVIS-Tools package.
data_AcP3
_symmetry_space_group_name_H-M  'Cm'
_cell_length_a       3.90979
_cell_length_b       4.37566
_cell_length_c       5.96195
_cell_angle_alpha    93.6768
_cell_angle_beta     109.141
_cell_angle_gamma    90

_symmetry_Int_Tables_number  8
_chemical_formula_structural  AcP3
_chemical_formula_sum  AcP3
_cell_volume  96.1356110649456
_cell_formula_units_Z  1
loop_
  _symmetry_equiv_pos_site_id
 _symmetry_equiv_pos_as_xyz
 1  'x, y, z'
loop_
 _atom_site_type_symbol
 _atom_site_label
 _atom_site_symmetry_multiplicity
 _atom_site_fract_x
 _atom_site_fract_y
 _atom_site_fract_z
 _atom_site_fract_occupancy
 Ac  Ac1  1  0.34051  -0.01293  0.68102  1
 P  P1  1  0.62214  0.09114  0.24428  1
 P  P2  1  0.11397  0.42367  0.22794  1
 P  P3  1  0.92338  0.49812  0.84675  1
