CIF file written using JARVIS-Tools package.
data_AsP3
_symmetry_space_group_name_H-M  'Cm'
_cell_length_a       3.43891
_cell_length_b       4.51867
_cell_length_c       5.6735
_cell_angle_alpha    91.7447
_cell_angle_beta     107.642
_cell_angle_gamma    90

_symmetry_Int_Tables_number  8
_chemical_formula_structural  AsP3
_chemical_formula_sum  AsP3
_cell_volume  83.9731195746774
_cell_formula_units_Z  1
loop_
  _symmetry_equiv_pos_site_id
 _symmetry_equiv_pos_as_xyz
 1  'x, y, z'
loop_
 _atom_site_type_symbol
 _atom_site_label
 _atom_site_symmetry_multiplicity
 _atom_site_fract_x
 _atom_site_fract_y
 _atom_site_fract_z
 _atom_site_fract_occupancy
 As  As1  1  0.39043  0.91406  0.78087  1
 P  P1  1  0.60427  0.10065  0.20854  1
 P  P2  1  0.10275  0.43054  0.20550  1
 P  P3  1  0.90255  0.55476  0.80510  1
