CIF file written using JARVIS-Tools package.
data_Li2FeB2O6
_symmetry_space_group_name_H-M  'R-3'
_cell_length_a       4.6353
_cell_length_b       10.1847
_cell_length_c       4.6353
_cell_angle_alpha    76.8464
_cell_angle_beta     60
_cell_angle_gamma    76.8464

_symmetry_Int_Tables_number  148
_chemical_formula_structural  Li2FeB2O6
_chemical_formula_sum  Li4Fe2B4O2
_cell_volume  182.85123840864574
_cell_formula_units_Z  2
loop_
  _symmetry_equiv_pos_site_id
 _symmetry_equiv_pos_as_xyz
 1  'x, y, z'
loop_
 _atom_site_type_symbol
 _atom_site_label
 _atom_site_symmetry_multiplicity
 _atom_site_fract_x
 _atom_site_fract_y
 _atom_site_fract_z
 _atom_site_fract_occupancy
 B  B1  1  0.20250  0.39249  0.20250  1
 B  B2  1  0.70250  0.89249  0.70250  1
 B  B3  1  0.29750  0.10751  0.29750  1
 B  B4  1  0.79750  0.60751  0.79750  1
 Fe  Fe1  1  0.50000  0.50000  0.50000  1
 Fe  Fe2  1  0.00000  0.00000  0.00000  1
 Li  Li1  1  0.90424  0.28728  0.90424  1
 Li  Li2  1  0.40424  0.78728  0.40424  1
 Li  Li3  1  0.59576  0.21272  0.59576  1
 Li  Li4  1  0.09576  0.71272  0.09576  1
 O  O1  1  0.60993  0.11503  0.25926  1
 O  O2  1  0.39007  0.88497  0.74074  1
 O  O3  1  0.25926  0.11503  0.01577  1
 O  O4  1  0.75926  0.61503  0.51577  1
 O  O5  1  0.89007  0.38497  0.24074  1
 O  O6  1  0.74074  0.88497  0.98423  1
 O  O7  1  0.48423  0.38497  0.89007  1
 O  O8  1  0.98423  0.88497  0.39007  1
 O  O9  1  0.24074  0.38497  0.48423  1
 O  O10  1  0.01577  0.11503  0.60993  1
 O  O11  1  0.51577  0.61503  0.10993  1
 O  O12  1  0.10993  0.61503  0.75926  1
