CIF file written using JARVIS-Tools package.
data_AlP3
_symmetry_space_group_name_H-M  'Cm'
_cell_length_a       3.4853
_cell_length_b       3.69647
_cell_length_c       5.90998
_cell_angle_alpha    87.9
_cell_angle_beta     107.15
_cell_angle_gamma    90

_symmetry_Int_Tables_number  8
_chemical_formula_structural  AlP3
_chemical_formula_sum  AlP3
_cell_volume  72.70130698998699
_cell_formula_units_Z  1
loop_
  _symmetry_equiv_pos_site_id
 _symmetry_equiv_pos_as_xyz
 1  'x, y, z'
loop_
 _atom_site_type_symbol
 _atom_site_label
 _atom_site_symmetry_multiplicity
 _atom_site_fract_x
 _atom_site_fract_y
 _atom_site_fract_z
 _atom_site_fract_occupancy
 Al  Al1  1  0.40172  0.00237  0.80345  1
 P  P1  1  0.62111  0.04428  0.24221  1
 P  P2  1  0.08869  0.43888  0.17737  1
 P  P3  1  0.88848  0.51447  0.77697  1
