CIF file written using JARVIS-Tools package.
data_AgP3
_symmetry_space_group_name_H-M  'C2/m'
_cell_length_a       3.29165
_cell_length_b       4.21499
_cell_length_c       5.89727
_cell_angle_alpha    65.9824
_cell_angle_beta     106.206
_cell_angle_gamma    90

_symmetry_Int_Tables_number  12
_chemical_formula_structural  AgP3
_chemical_formula_sum  AgP3
_cell_volume  71.1624902861921
_cell_formula_units_Z  1
loop_
  _symmetry_equiv_pos_site_id
 _symmetry_equiv_pos_as_xyz
 1  'x, y, z'
loop_
 _atom_site_type_symbol
 _atom_site_label
 _atom_site_symmetry_multiplicity
 _atom_site_fract_x
 _atom_site_fract_y
 _atom_site_fract_z
 _atom_site_fract_occupancy
 Ag  Ag1  1  0.37500  0.12504  0.74999  1
 P  P1  1  0.62907  -0.05546  0.25813  1
 P  P2  1  0.12092  0.30544  0.24184  1
 P  P3  1  0.87502  0.62498  0.75003  1
