CIF file written using JARVIS-Tools package.
data_La3AlO6
_symmetry_space_group_name_H-M  'Cmc2_1'
_cell_length_a       7.52789
_cell_length_b       7.52789
_cell_length_c       5.65089
_cell_angle_alpha    90
_cell_angle_beta     90
_cell_angle_gamma    102.95

_symmetry_Int_Tables_number  36
_chemical_formula_structural  La3AlO6
_chemical_formula_sum  La6Al2O2
_cell_volume  312.0855969003425
_cell_formula_units_Z  2
loop_
  _symmetry_equiv_pos_site_id
 _symmetry_equiv_pos_as_xyz
 1  'x, y, z'
loop_
 _atom_site_type_symbol
 _atom_site_label
 _atom_site_symmetry_multiplicity
 _atom_site_fract_x
 _atom_site_fract_y
 _atom_site_fract_z
 _atom_site_fract_occupancy
 Al  Al1  1  0.80719  0.19281  0.00732  1
 Al  Al2  1  0.19281  0.80719  0.50732  1
 La  La1  1  0.08520  0.30037  0.46812  1
 La  La2  1  0.30037  0.08520  0.96812  1
 La  La3  1  0.60614  0.39386  0.43254  1
 La  La4  1  0.39386  0.60614  0.93254  1
 La  La5  1  0.69963  0.91480  0.46812  1
 La  La6  1  0.91480  0.69963  0.96812  1
 O  O1  1  0.32970  0.35218  0.20358  1
 O  O2  1  0.64782  0.67030  0.20358  1
 O  O3  1  0.11034  0.59413  0.65890  1
 O  O4  1  0.59413  0.11034  0.15890  1
 O  O5  1  0.35218  0.32970  0.70358  1
 O  O6  1  0.88966  0.40587  0.15890  1
 O  O7  1  0.21315  0.78685  0.19438  1
 O  O8  1  0.04996  0.95004  0.61851  1
 O  O9  1  0.95004  0.04996  0.11851  1
 O  O10  1  0.40587  0.88966  0.65890  1
 O  O11  1  0.78685  0.21315  0.69438  1
 O  O12  1  0.67030  0.64782  0.70358  1
