CIF file written using JARVIS-Tools package.
data_BiP3
_symmetry_space_group_name_H-M  'Cm'
_cell_length_a       3.68575
_cell_length_b       4.57345
_cell_length_c       5.83008
_cell_angle_alpha    92.8312
_cell_angle_beta     108.427
_cell_angle_gamma    90

_symmetry_Int_Tables_number  8
_chemical_formula_structural  BiP3
_chemical_formula_sum  BiP3
_cell_volume  93.1098639631019
_cell_formula_units_Z  1
loop_
  _symmetry_equiv_pos_site_id
 _symmetry_equiv_pos_as_xyz
 1  'x, y, z'
loop_
 _atom_site_type_symbol
 _atom_site_label
 _atom_site_symmetry_multiplicity
 _atom_site_fract_x
 _atom_site_fract_y
 _atom_site_fract_z
 _atom_site_fract_occupancy
 Bi  Bi1  1  0.36891  0.91912  0.73782  1
 P  P1  1  0.61226  0.12601  0.22452  1
 P  P2  1  0.10766  0.44506  0.21533  1
 P  P3  1  0.91117  0.50981  0.82234  1
