CIF file written using JARVIS-Tools package.
data_BP3
_symmetry_space_group_name_H-M  'Cm'
_cell_length_a       3.24548
_cell_length_b       4.71048
_cell_length_c       5.23162
_cell_angle_alpha    91.5052
_cell_angle_beta     108.07
_cell_angle_gamma    90

_symmetry_Int_Tables_number  8
_chemical_formula_structural  BP3
_chemical_formula_sum  BP3
_cell_volume  76.0061501674696
_cell_formula_units_Z  1
loop_
  _symmetry_equiv_pos_site_id
 _symmetry_equiv_pos_as_xyz
 1  'x, y, z'
loop_
 _atom_site_type_symbol
 _atom_site_label
 _atom_site_symmetry_multiplicity
 _atom_site_fract_x
 _atom_site_fract_y
 _atom_site_fract_z
 _atom_site_fract_occupancy
 B  B1  1  0.44032  0.83632  0.88065  1
 P  P1  1  0.58148  0.10688  0.16296  1
 P  P2  1  0.09273  0.42032  0.18547  1
 P  P3  1  0.88546  0.63648  0.77093  1
