CIF file written using JARVIS-Tools package.
data_Cu3SnP4O16
_symmetry_space_group_name_H-M  'Pm'
_cell_length_a       6.01511
_cell_length_b       4.94108
_cell_length_c       9.90943
_cell_angle_alpha    87.3667
_cell_angle_beta     90
_cell_angle_gamma    90

_symmetry_Int_Tables_number  6
_chemical_formula_structural  Cu3SnP4O16
_chemical_formula_sum  Cu3SnP4O6
_cell_volume  294.2081801890333
_cell_formula_units_Z  1
loop_
  _symmetry_equiv_pos_site_id
 _symmetry_equiv_pos_as_xyz
 1  'x, y, z'
loop_
 _atom_site_type_symbol
 _atom_site_label
 _atom_site_symmetry_multiplicity
 _atom_site_fract_x
 _atom_site_fract_y
 _atom_site_fract_z
 _atom_site_fract_occupancy
 Cu  Cu1  1  0.50000  0.87090  0.30624  1
 Cu  Cu2  1  0.50000  0.65366  0.80978  1
 Cu  Cu3  1  0.00000  0.36930  0.19934  1
 O  O1  1  0.00000  0.82036  0.54956  1
 O  O2  1  0.20145  0.74927  0.32903  1
 O  O3  1  0.79855  0.74927  0.32903  1
 O  O4  1  0.29349  0.25091  0.65370  1
 O  O5  1  0.50000  0.72735  0.13430  1
 O  O6  1  0.19275  0.75706  0.82861  1
 O  O7  1  0.50000  0.79996  0.63344  1
 O  O8  1  0.00000  0.62911  0.05449  1
 O  O9  1  0.50000  0.39913  0.95336  1
 O  O10  1  0.29940  0.26426  0.17206  1
 O  O11  1  0.80725  0.75706  0.82861  1
 O  O12  1  0.00000  0.28928  0.87428  1
 O  O13  1  0.00000  0.19957  0.37351  1
 O  O14  1  0.70651  0.25091  0.65370  1
 O  O15  1  0.70060  0.26426  0.17206  1
 O  O16  1  0.50000  0.13099  0.43846  1
 P  P1  1  0.50000  0.10432  0.59295  1
 P  P2  1  0.50000  0.42203  0.10918  1
 P  P3  1  0.00000  0.59015  0.90372  1
 P  P4  1  0.00000  0.88838  0.39350  1
 Sn  Sn1  1  0.00000  0.06249  0.70709  1
