CIF file written using JARVIS-Tools package.
data_P3C
_symmetry_space_group_name_H-M  'Cm'
_cell_length_a       3.08058
_cell_length_b       4.90709
_cell_length_c       4.88635
_cell_angle_alpha    81.8155
_cell_angle_beta     108.374
_cell_angle_gamma    89.9999

_symmetry_Int_Tables_number  8
_chemical_formula_structural  P3C
_chemical_formula_sum  P3C
_cell_volume  69.30652173616203
_cell_formula_units_Z  1
loop_
  _symmetry_equiv_pos_site_id
 _symmetry_equiv_pos_as_xyz
 1  'x, y, z'
loop_
 _atom_site_type_symbol
 _atom_site_label
 _atom_site_symmetry_multiplicity
 _atom_site_fract_x
 _atom_site_fract_y
 _atom_site_fract_z
 _atom_site_fract_occupancy
 C  C1  1  0.43922  0.86645  0.87843  1
 P  P1  1  0.58190  0.06585  0.16379  1
 P  P2  1  0.09694  0.36251  0.19388  1
 P  P3  1  0.88195  0.70519  0.76390  1
