CIF file written using JARVIS-Tools package.
data_CaP3
_symmetry_space_group_name_H-M  'Cm'
_cell_length_a       3.37792
_cell_length_b       4.45314
_cell_length_c       5.74759
_cell_angle_alpha    96.2456
_cell_angle_beta     107.089
_cell_angle_gamma    90

_symmetry_Int_Tables_number  8
_chemical_formula_structural  CaP3
_chemical_formula_sum  CaP3
_cell_volume  82.10318290903784
_cell_formula_units_Z  1
loop_
  _symmetry_equiv_pos_site_id
 _symmetry_equiv_pos_as_xyz
 1  'x, y, z'
loop_
 _atom_site_type_symbol
 _atom_site_label
 _atom_site_symmetry_multiplicity
 _atom_site_fract_x
 _atom_site_fract_y
 _atom_site_fract_z
 _atom_site_fract_occupancy
 Ca  Ca1  1  0.34219  -0.02293  0.68437  1
 P  P1  1  0.61977  0.09263  0.23953  1
 P  P2  1  0.11772  0.43100  0.23543  1
 P  P3  1  0.92033  0.49930  0.84066  1
