CIF file written using JARVIS-Tools package.
data_SrO2
_symmetry_space_group_name_H-M  'Pnma'
_cell_length_a       4.40924
_cell_length_b       4.92234
_cell_length_c       8.50352
_cell_angle_alpha    90
_cell_angle_beta     90
_cell_angle_gamma    90

_symmetry_Int_Tables_number  62
_chemical_formula_structural  SrO2
_chemical_formula_sum  Sr4O8
_cell_volume  184.5585011778662
_cell_formula_units_Z  4
loop_
  _symmetry_equiv_pos_site_id
 _symmetry_equiv_pos_as_xyz
 1  'x, y, z'
loop_
 _atom_site_type_symbol
 _atom_site_label
 _atom_site_symmetry_multiplicity
 _atom_site_fract_x
 _atom_site_fract_y
 _atom_site_fract_z
 _atom_site_fract_occupancy
 O  O1  1  0.42405  0.75000  0.37428  1
 O  O2  1  0.07595  0.75000  0.87428  1
 O  O3  1  0.57595  0.25000  0.62572  1
 O  O4  1  -0.07595  0.25000  0.12572  1
 O  O5  1  0.07785  0.75000  0.37573  1
 O  O6  1  0.42215  0.75000  0.87573  1
 O  O7  1  0.92215  0.25000  0.62427  1
 O  O8  1  0.57785  0.25000  0.12427  1
 Sr  Sr1  1  0.75125  0.75000  0.12501  1
 Sr  Sr2  1  0.74875  0.75000  0.62501  1
 Sr  Sr3  1  0.24875  0.25000  0.87499  1
 Sr  Sr4  1  0.25125  0.25000  0.37499  1
