CIF file written using JARVIS-Tools package.
data_SmSn7
_symmetry_space_group_name_H-M  'P-43m'
_cell_length_a       6.78891
_cell_length_b       6.78891
_cell_length_c       6.78891
_cell_angle_alpha    90
_cell_angle_beta     90
_cell_angle_gamma    90

_symmetry_Int_Tables_number  215
_chemical_formula_structural  SmSn7
_chemical_formula_sum  SmSn7
_cell_volume  312.8966916509483
_cell_formula_units_Z  1
loop_
  _symmetry_equiv_pos_site_id
 _symmetry_equiv_pos_as_xyz
 1  'x, y, z'
loop_
 _atom_site_type_symbol
 _atom_site_label
 _atom_site_symmetry_multiplicity
 _atom_site_fract_x
 _atom_site_fract_y
 _atom_site_fract_z
 _atom_site_fract_occupancy
 Sm  Sm1  1  0.00000  0.00000  0.50000  1
 Sn  Sn1  1  0.25941  0.25941  0.75941  1
 Sn  Sn2  1  0.00000  0.50000  0.00000  1
 Sn  Sn3  1  0.25941  0.74059  0.24059  1
 Sn  Sn4  1  0.50000  0.00000  0.00000  1
 Sn  Sn5  1  0.74059  0.25941  0.24059  1
 Sn  Sn6  1  0.50000  0.50000  0.50000  1
 Sn  Sn7  1  0.74059  0.74059  0.75941  1
