CIF file written using JARVIS-Tools package.
data_P3Br
_symmetry_space_group_name_H-M  'C2/m'
_cell_length_a       3.32069
_cell_length_b       4.47321
_cell_length_c       5.88524
_cell_angle_alpha    96.1569
_cell_angle_beta     106.387
_cell_angle_gamma    90

_symmetry_Int_Tables_number  12
_chemical_formula_structural  P3Br
_chemical_formula_sum  P3Br
_cell_volume  83.34333101815989
_cell_formula_units_Z  1
loop_
  _symmetry_equiv_pos_site_id
 _symmetry_equiv_pos_as_xyz
 1  'x, y, z'
loop_
 _atom_site_type_symbol
 _atom_site_label
 _atom_site_symmetry_multiplicity
 _atom_site_fract_x
 _atom_site_fract_y
 _atom_site_fract_z
 _atom_site_fract_occupancy
 Br  Br1  1  0.37500  0.87494  0.75000  1
 P  P1  1  0.65411  0.23614  0.30823  1
 P  P2  1  0.09589  0.51397  0.19179  1
 P  P3  1  0.87499  0.37495  0.74998  1
