CIF file written using JARVIS-Tools package.
data_PdCl2
_symmetry_space_group_name_H-M  'P-1'
_cell_length_a       4.80966
_cell_length_b       9.82901
_cell_length_c       9.08784
_cell_angle_alpha    86.0413
_cell_angle_beta     84.0018
_cell_angle_gamma    85.9496

_symmetry_Int_Tables_number  2
_chemical_formula_structural  PdCl2
_chemical_formula_sum  Pd6Cl2
_cell_volume  425.3767830613595
_cell_formula_units_Z  6
loop_
  _symmetry_equiv_pos_site_id
 _symmetry_equiv_pos_as_xyz
 1  'x, y, z'
loop_
 _atom_site_type_symbol
 _atom_site_label
 _atom_site_symmetry_multiplicity
 _atom_site_fract_x
 _atom_site_fract_y
 _atom_site_fract_z
 _atom_site_fract_occupancy
 Cl  Cl1  1  0.02929  0.35976  0.41812  1
 Cl  Cl2  1  0.38300  0.12201  0.17989  1
 Cl  Cl3  1  0.04581  0.78347  0.06810  1
 Cl  Cl4  1  0.97071  0.64024  0.58188  1
 Cl  Cl5  1  0.61700  0.87799  0.82011  1
 Cl  Cl6  1  0.52411  0.23305  0.66789  1
 Cl  Cl7  1  0.47589  0.76695  0.33211  1
 Cl  Cl8  1  0.65006  0.46626  0.16091  1
 Cl  Cl9  1  0.85347  0.95944  0.44500  1
 Cl  Cl10  1  0.14653  0.04056  0.55500  1
 Cl  Cl11  1  0.34994  0.53374  0.83909  1
 Cl  Cl12  1  -0.04581  0.21653  -0.06810  1
 Pd  Pd1  1  0.74353  0.56528  0.37852  1
 Pd  Pd2  1  0.98502  0.70839  0.82959  1
 Pd  Pd3  1  0.46531  0.17699  0.92334  1
 Pd  Pd4  1  0.25647  0.43472  0.62148  1
 Pd  Pd5  1  0.01498  0.29161  0.17041  1
 Pd  Pd6  1  0.53469  0.82301  0.07666  1
