CIF file written using JARVIS-Tools package.
data_DyP3
_symmetry_space_group_name_H-M  'Cm'
_cell_length_a       3.67029
_cell_length_b       4.0101
_cell_length_c       5.56677
_cell_angle_alpha    93.8041
_cell_angle_beta     109.248
_cell_angle_gamma    90

_symmetry_Int_Tables_number  8
_chemical_formula_structural  DyP3
_chemical_formula_sum  DyP3
_cell_volume  77.1618253997196
_cell_formula_units_Z  1
loop_
  _symmetry_equiv_pos_site_id
 _symmetry_equiv_pos_as_xyz
 1  'x, y, z'
loop_
 _atom_site_type_symbol
 _atom_site_label
 _atom_site_symmetry_multiplicity
 _atom_site_fract_x
 _atom_site_fract_y
 _atom_site_fract_z
 _atom_site_fract_occupancy
 Dy  Dy1  1  0.33933  -0.01920  0.67866  1
 P  P1  1  0.62147  0.07509  0.24293  1
 P  P2  1  0.12377  0.44786  0.24753  1
 P  P3  1  0.91544  0.49625  0.83087  1
