CIF file written using JARVIS-Tools package.
data_SrSnF2
_symmetry_space_group_name_H-M  'P4mm'
_cell_length_a       3.48233
_cell_length_b       3.48233
_cell_length_c       7.07182
_cell_angle_alpha    90
_cell_angle_beta     90
_cell_angle_gamma    90

_symmetry_Int_Tables_number  99
_chemical_formula_structural  SrSnF2
_chemical_formula_sum  SrSnF2
_cell_volume  85.75726445740617
_cell_formula_units_Z  1
loop_
  _symmetry_equiv_pos_site_id
 _symmetry_equiv_pos_as_xyz
 1  'x, y, z'
loop_
 _atom_site_type_symbol
 _atom_site_label
 _atom_site_symmetry_multiplicity
 _atom_site_fract_x
 _atom_site_fract_y
 _atom_site_fract_z
 _atom_site_fract_occupancy
 F  F1  1  0.00000  0.00000  0.54158  1
 F  F2  1  0.50000  0.50000  0.84436  1
 Sn  Sn1  1  0.00000  0.00000  0.09449  1
 Sr  Sr1  1  0.50000  0.50000  0.52957  1
