CIF file written using JARVIS-Tools package.
data_P3F
_symmetry_space_group_name_H-M  'Cm'
_cell_length_a       3.17951
_cell_length_b       4.70732
_cell_length_c       5.56828
_cell_angle_alpha    72.1643
_cell_angle_beta     106.589
_cell_angle_gamma    90

_symmetry_Int_Tables_number  8
_chemical_formula_structural  P3F
_chemical_formula_sum  P3F
_cell_volume  75.68264066323756
_cell_formula_units_Z  1
loop_
  _symmetry_equiv_pos_site_id
 _symmetry_equiv_pos_as_xyz
 1  'x, y, z'
loop_
 _atom_site_type_symbol
 _atom_site_label
 _atom_site_symmetry_multiplicity
 _atom_site_fract_x
 _atom_site_fract_y
 _atom_site_fract_z
 _atom_site_fract_occupancy
 F  F1  1  0.36790  0.83691  0.73580  1
 P  P1  1  0.58048  0.16628  0.16095  1
 P  P2  1  0.13087  0.45706  0.26174  1
 P  P3  1  0.92076  0.53976  0.84151  1
