CIF file written using JARVIS-Tools package.
data_ErP3
_symmetry_space_group_name_H-M  'Cm'
_cell_length_a       3.65075
_cell_length_b       3.98085
_cell_length_c       5.53206
_cell_angle_alpha    93.8011
_cell_angle_beta     109.266
_cell_angle_gamma    90

_symmetry_Int_Tables_number  8
_chemical_formula_structural  ErP3
_chemical_formula_sum  ErP3
_cell_volume  75.70782342010745
_cell_formula_units_Z  1
loop_
  _symmetry_equiv_pos_site_id
 _symmetry_equiv_pos_as_xyz
 1  'x, y, z'
loop_
 _atom_site_type_symbol
 _atom_site_label
 _atom_site_symmetry_multiplicity
 _atom_site_fract_x
 _atom_site_fract_y
 _atom_site_fract_z
 _atom_site_fract_occupancy
 Er  Er1  1  0.33970  -0.02001  0.67940  1
 P  P1  1  0.62178  0.07422  0.24357  1
 P  P2  1  0.12422  0.45025  0.24843  1
 P  P3  1  0.91430  0.49555  0.82861  1
