CIF file written using JARVIS-Tools package.
data_Na
_symmetry_space_group_name_H-M  'I-43m'
_cell_length_a       11.1153
_cell_length_b       11.1153
_cell_length_c       11.1153
_cell_angle_alpha    109.471
_cell_angle_beta     109.471
_cell_angle_gamma    109.471

_symmetry_Int_Tables_number  217
_chemical_formula_structural  Na
_chemical_formula_sum  Na29
_cell_volume  1057.1695195236834
_cell_formula_units_Z  29
loop_
  _symmetry_equiv_pos_site_id
 _symmetry_equiv_pos_as_xyz
 1  'x, y, z'
loop_
 _atom_site_type_symbol
 _atom_site_label
 _atom_site_symmetry_multiplicity
 _atom_site_fract_x
 _atom_site_fract_y
 _atom_site_fract_z
 _atom_site_fract_occupancy
 Na  Na1  1  0.00000  0.00000  0.00000  1
 Na  Na2  1  0.64009  0.00000  -0.00000  1
 Na  Na3  1  0.37475  0.18988  0.00000  1
 Na  Na4  1  0.18988  0.37475  0.00000  1
 Na  Na5  1  0.68347  0.40599  0.00000  1
 Na  Na6  1  0.00000  0.64009  0.00000  1
 Na  Na7  1  0.40599  0.68347  0.00000  1
 Na  Na8  1  0.81012  0.81012  0.18486  1
 Na  Na9  1  0.37475  0.00000  0.18988  1
 Na  Na10  1  0.00000  0.37475  0.18988  1
 Na  Na11  1  0.59401  0.59401  0.27748  1
 Na  Na12  1  0.72252  0.31653  0.31653  1
 Na  Na13  1  0.31653  0.72252  0.31653  1
 Na  Na14  1  0.35991  0.35991  0.35991  1
 Na  Na15  1  0.18988  0.00000  0.37475  1
 Na  Na16  1  0.00000  0.18988  0.37475  1
 Na  Na17  1  0.68347  0.00000  0.40599  1
 Na  Na18  1  0.00000  0.68347  0.40599  1
 Na  Na19  1  0.59401  0.27748  0.59401  1
 Na  Na20  1  0.27748  0.59401  0.59401  1
 Na  Na21  1  0.81514  0.62525  0.62525  1
 Na  Na22  1  0.62525  0.81514  0.62525  1
 Na  Na23  1  0.00000  0.00000  0.64009  1
 Na  Na24  1  0.40599  0.00000  0.68347  1
 Na  Na25  1  0.00000  0.40599  0.68347  1
 Na  Na26  1  0.31653  0.31653  0.72252  1
 Na  Na27  1  0.81012  0.18486  0.81012  1
 Na  Na28  1  0.18486  0.81012  0.81012  1
 Na  Na29  1  0.62525  0.62525  0.81514  1
