CIF file written using JARVIS-Tools package.
data_CoP3
_symmetry_space_group_name_H-M  'Cm'
_cell_length_a       3.22131
_cell_length_b       3.51211
_cell_length_c       5.61643
_cell_angle_alpha    108.964
_cell_angle_beta     106.665
_cell_angle_gamma    89.9999

_symmetry_Int_Tables_number  8
_chemical_formula_structural  CoP3
_chemical_formula_sum  CoP3
_cell_volume  57.26359385799231
_cell_formula_units_Z  1
loop_
  _symmetry_equiv_pos_site_id
 _symmetry_equiv_pos_as_xyz
 1  'x, y, z'
loop_
 _atom_site_type_symbol
 _atom_site_label
 _atom_site_symmetry_multiplicity
 _atom_site_fract_x
 _atom_site_fract_y
 _atom_site_fract_z
 _atom_site_fract_occupancy
 Co  Co1  1  0.36949  0.85433  0.73897  1
 P  P1  1  0.58818  0.11467  0.17635  1
 P  P2  1  0.14312  0.57628  0.28623  1
 P  P3  1  0.89922  0.45472  0.79844  1
