CIF file written using JARVIS-Tools package.
data_SrHN
_symmetry_space_group_name_H-M  'Pnma'
_cell_length_a       3.95015
_cell_length_b       5.59918
_cell_length_c       7.52659
_cell_angle_alpha    90
_cell_angle_beta     90
_cell_angle_gamma    90

_symmetry_Int_Tables_number  62
_chemical_formula_structural  SrHN
_chemical_formula_sum  Sr4H4N4
_cell_volume  166.47040839113708
_cell_formula_units_Z  4
loop_
  _symmetry_equiv_pos_site_id
 _symmetry_equiv_pos_as_xyz
 1  'x, y, z'
loop_
 _atom_site_type_symbol
 _atom_site_label
 _atom_site_symmetry_multiplicity
 _atom_site_fract_x
 _atom_site_fract_y
 _atom_site_fract_z
 _atom_site_fract_occupancy
 H  H1  1  0.25000  0.10638  0.01624  1
 H  H2  1  0.25000  0.39362  0.51624  1
 H  H3  1  0.75000  0.60638  0.48376  1
 H  H4  1  0.75000  0.89362  0.98376  1
 N  N1  1  0.25000  0.23530  0.11541  1
 N  N2  1  0.25000  0.26470  0.61541  1
 N  N3  1  0.75000  0.73530  0.38459  1
 N  N4  1  0.75000  0.76470  0.88459  1
 Sr  Sr1  1  0.75000  0.19023  0.35182  1
 Sr  Sr2  1  0.75000  0.30977  0.85182  1
 Sr  Sr3  1  0.25000  0.69023  0.14818  1
 Sr  Sr4  1  0.25000  0.80977  0.64818  1
