CIF file written using JARVIS-Tools package.
data_HoP3
_symmetry_space_group_name_H-M  'Cm'
_cell_length_a       3.66025
_cell_length_b       3.99491
_cell_length_c       5.54828
_cell_angle_alpha    93.8005
_cell_angle_beta     109.26
_cell_angle_gamma    90.0001

_symmetry_Int_Tables_number  8
_chemical_formula_structural  HoP3
_chemical_formula_sum  HoP3
_cell_volume  76.39940539183064
_cell_formula_units_Z  1
loop_
  _symmetry_equiv_pos_site_id
 _symmetry_equiv_pos_as_xyz
 1  'x, y, z'
loop_
 _atom_site_type_symbol
 _atom_site_label
 _atom_site_symmetry_multiplicity
 _atom_site_fract_x
 _atom_site_fract_y
 _atom_site_fract_z
 _atom_site_fract_occupancy
 Ho  Ho1  1  0.33948  -0.01960  0.67897  1
 P  P1  1  0.62163  0.07462  0.24326  1
 P  P2  1  0.12403  0.44909  0.24806  1
 P  P3  1  0.91486  0.49590  0.82971  1
