CIF file written using JARVIS-Tools package.
data_GaPS4
_symmetry_space_group_name_H-M  'I-4m2'
_cell_length_a       7.44601
_cell_length_b       7.44601
_cell_length_c       7.44601
_cell_angle_alpha    141.836
_cell_angle_beta     141.836
_cell_angle_gamma    55.0765

_symmetry_Int_Tables_number  119
_chemical_formula_structural  GaPS4
_chemical_formula_sum  GaPS4
_cell_volume  156.4959377343302
_cell_formula_units_Z  1
loop_
  _symmetry_equiv_pos_site_id
 _symmetry_equiv_pos_as_xyz
 1  'x, y, z'
loop_
 _atom_site_type_symbol
 _atom_site_label
 _atom_site_symmetry_multiplicity
 _atom_site_fract_x
 _atom_site_fract_y
 _atom_site_fract_z
 _atom_site_fract_occupancy
 Ga  Ga1  1  0.00000  0.00000  0.00000  1
 P  P1  1  0.25000  0.75000  0.50000  1
 S  S1  1  0.85400  0.13958  0.71443  1
 S  S2  1  0.42516  0.13958  0.28558  1
 S  S3  1  0.86042  0.57485  0.71443  1
 S  S4  1  0.86042  0.14600  0.28558  1
