CIF file written using JARVIS-Tools package.
data_HfP3
_symmetry_space_group_name_H-M  'Amm2'
_cell_length_a       3.63626
_cell_length_b       3.78268
_cell_length_c       5.17549
_cell_angle_alpha    90.0024
_cell_angle_beta     110.567
_cell_angle_gamma    90

_symmetry_Int_Tables_number  38
_chemical_formula_structural  HfP3
_chemical_formula_sum  HfP3
_cell_volume  66.65078749772735
_cell_formula_units_Z  1
loop_
  _symmetry_equiv_pos_site_id
 _symmetry_equiv_pos_as_xyz
 1  'x, y, z'
loop_
 _atom_site_type_symbol
 _atom_site_label
 _atom_site_symmetry_multiplicity
 _atom_site_fract_x
 _atom_site_fract_y
 _atom_site_fract_z
 _atom_site_fract_occupancy
 Hf  Hf1  1  0.32928  -0.00004  0.65857  1
 P  P1  1  0.62285  0.00008  0.24569  1
 P  P2  1  0.13640  0.49998  0.27281  1
 P  P3  1  0.91147  0.49997  0.82294  1
