CIF file written using JARVIS-Tools package.
data_GaPS4
_symmetry_space_group_name_H-M  'Cmmm'
_cell_length_a       5.71005
_cell_length_b       5.71005
_cell_length_c       3.5137
_cell_angle_alpha    90
_cell_angle_beta     90
_cell_angle_gamma    93.5782

_symmetry_Int_Tables_number  65
_chemical_formula_structural  GaPS4
_chemical_formula_sum  GaPS4
_cell_volume  114.3399453198268
_cell_formula_units_Z  1
loop_
  _symmetry_equiv_pos_site_id
 _symmetry_equiv_pos_as_xyz
 1  'x, y, z'
loop_
 _atom_site_type_symbol
 _atom_site_label
 _atom_site_symmetry_multiplicity
 _atom_site_fract_x
 _atom_site_fract_y
 _atom_site_fract_z
 _atom_site_fract_occupancy
 Ga  Ga1  1  0.00000  0.00000  0.00000  1
 P  P1  1  0.50000  0.50000  0.50000  1
 S  S1  1  0.20009  0.20009  0.50000  1
 S  S2  1  0.31889  0.68111  0.00000  1
 S  S3  1  0.79992  0.79992  0.50000  1
 S  S4  1  0.68111  0.31889  0.00000  1
