CIF file written using JARVIS-Tools package.
data_HeP3
_symmetry_space_group_name_H-M  'Cm'
_cell_length_a       3.17688
_cell_length_b       5.30287
_cell_length_c       4.98934
_cell_angle_alpha    102.98
_cell_angle_beta     108.564
_cell_angle_gamma    90

_symmetry_Int_Tables_number  8
_chemical_formula_structural  HeP3
_chemical_formula_sum  HeP3
_cell_volume  77.41081223102402
_cell_formula_units_Z  1
loop_
  _symmetry_equiv_pos_site_id
 _symmetry_equiv_pos_as_xyz
 1  'x, y, z'
loop_
 _atom_site_type_symbol
 _atom_site_label
 _atom_site_symmetry_multiplicity
 _atom_site_fract_x
 _atom_site_fract_y
 _atom_site_fract_z
 _atom_site_fract_occupancy
 He  He1  1  0.36088  -0.05186  0.72176  1
 P  P1  1  0.66244  0.16277  0.32488  1
 P  P2  1  0.09862  0.40960  0.19723  1
 P  P3  1  0.87806  0.47949  0.75613  1
