CIF file written using JARVIS-Tools package.
data_LaP3
_symmetry_space_group_name_H-M  'Cm'
_cell_length_a       3.805
_cell_length_b       4.22366
_cell_length_c       5.81164
_cell_angle_alpha    93.9884
_cell_angle_beta     109.109
_cell_angle_gamma    90

_symmetry_Int_Tables_number  8
_chemical_formula_structural  LaP3
_chemical_formula_sum  LaP3
_cell_volume  88.01321286687758
_cell_formula_units_Z  1
loop_
  _symmetry_equiv_pos_site_id
 _symmetry_equiv_pos_as_xyz
 1  'x, y, z'
loop_
 _atom_site_type_symbol
 _atom_site_label
 _atom_site_symmetry_multiplicity
 _atom_site_fract_x
 _atom_site_fract_y
 _atom_site_fract_z
 _atom_site_fract_occupancy
 La  La1  1  0.33977  -0.00944  0.67955  1
 P  P1  1  0.62088  0.07735  0.24176  1
 P  P2  1  0.11770  0.42753  0.23539  1
 P  P3  1  0.92165  0.50456  0.84331  1
