CIF file written using JARVIS-Tools package.
data_Sm2Mn2Fe15
_symmetry_space_group_name_H-M  'R-3m'
_cell_length_a       6.28496
_cell_length_b       6.28496
_cell_length_c       6.28496
_cell_angle_alpha    82.4022
_cell_angle_beta     82.4021
_cell_angle_gamma    82.4021

_symmetry_Int_Tables_number  166
_chemical_formula_structural  Sm2Mn2Fe15
_chemical_formula_sum  Sm2Mn2Fe5
_cell_volume  242.2510271579692
_cell_formula_units_Z  1
loop_
  _symmetry_equiv_pos_site_id
 _symmetry_equiv_pos_as_xyz
 1  'x, y, z'
loop_
 _atom_site_type_symbol
 _atom_site_label
 _atom_site_symmetry_multiplicity
 _atom_site_fract_x
 _atom_site_fract_y
 _atom_site_fract_z
 _atom_site_fract_occupancy
 Fe  Fe1  1  0.70804  0.00000  0.29196  1
 Fe  Fe2  1  0.00000  0.00000  0.50000  1
 Fe  Fe3  1  0.50000  0.00000  0.00000  1
 Fe  Fe4  1  0.00000  0.50000  -0.00000  1
 Fe  Fe5  1  0.70804  0.29196  0.00000  1
 Fe  Fe6  1  0.00000  0.70804  0.29196  1
 Fe  Fe7  1  0.15289  0.66393  0.66393  1
 Fe  Fe8  1  0.29196  -0.00000  0.70804  1
 Fe  Fe9  1  -0.00000  0.29196  0.70804  1
 Fe  Fe10  1  0.66393  0.15289  0.66393  1
 Fe  Fe11  1  0.33607  0.33607  0.84711  1
 Fe  Fe12  1  0.84711  0.33607  0.33607  1
 Fe  Fe13  1  0.33607  0.84711  0.33607  1
 Fe  Fe14  1  0.66393  0.66393  0.15289  1
 Fe  Fe15  1  0.29196  0.70804  -0.00000  1
 Mn  Mn1  1  0.09080  0.09080  0.09080  1
 Mn  Mn2  1  0.90920  0.90920  0.90920  1
 Sm  Sm1  1  0.34554  0.34554  0.34554  1
 Sm  Sm2  1  0.65446  0.65446  0.65446  1
