CIF file written using JARVIS-Tools package.
data_MoP3
_symmetry_space_group_name_H-M  'Cm'
_cell_length_a       3.21796
_cell_length_b       4.16459
_cell_length_c       4.9237
_cell_angle_alpha    96.1926
_cell_angle_beta     109.074
_cell_angle_gamma    90

_symmetry_Int_Tables_number  8
_chemical_formula_structural  MoP3
_chemical_formula_sum  MoP3
_cell_volume  61.954775327160675
_cell_formula_units_Z  1
loop_
  _symmetry_equiv_pos_site_id
 _symmetry_equiv_pos_as_xyz
 1  'x, y, z'
loop_
 _atom_site_type_symbol
 _atom_site_label
 _atom_site_symmetry_multiplicity
 _atom_site_fract_x
 _atom_site_fract_y
 _atom_site_fract_z
 _atom_site_fract_occupancy
 Mo  Mo1  1  0.33516  0.91063  0.67032  1
 P  P1  1  0.61912  0.08632  0.23824  1
 P  P2  1  0.13922  0.47704  0.27843  1
 P  P3  1  0.90650  0.52601  0.81301  1
