CIF file written using JARVIS-Tools package.
data_NiP3
_symmetry_space_group_name_H-M  'Cm'
_cell_length_a       3.28953
_cell_length_b       3.61146
_cell_length_c       5.5476
_cell_angle_alpha    110.502
_cell_angle_beta     107.246
_cell_angle_gamma    89.9999

_symmetry_Int_Tables_number  8
_chemical_formula_structural  NiP3
_chemical_formula_sum  NiP3
_cell_volume  58.55719824557395
_cell_formula_units_Z  1
loop_
  _symmetry_equiv_pos_site_id
 _symmetry_equiv_pos_as_xyz
 1  'x, y, z'
loop_
 _atom_site_type_symbol
 _atom_site_label
 _atom_site_symmetry_multiplicity
 _atom_site_fract_x
 _atom_site_fract_y
 _atom_site_fract_z
 _atom_site_fract_occupancy
 Ni  Ni1  1  0.37052  0.87781  0.74103  1
 P  P1  1  0.59538  0.13268  0.19076  1
 P  P2  1  0.13722  0.57364  0.27445  1
 P  P3  1  0.89688  0.41587  0.79376  1
