CIF file written using JARVIS-Tools package.
data_NbAs5
_symmetry_space_group_name_H-M  'P3m1'
_cell_length_a       3.55843
_cell_length_b       3.55843
_cell_length_c       11.359
_cell_angle_alpha    90
_cell_angle_beta     90
_cell_angle_gamma    120

_symmetry_Int_Tables_number  156
_chemical_formula_structural  NbAs5
_chemical_formula_sum  NbAs5
_cell_volume  124.56296309329156
_cell_formula_units_Z  1
loop_
  _symmetry_equiv_pos_site_id
 _symmetry_equiv_pos_as_xyz
 1  'x, y, z'
loop_
 _atom_site_type_symbol
 _atom_site_label
 _atom_site_symmetry_multiplicity
 _atom_site_fract_x
 _atom_site_fract_y
 _atom_site_fract_z
 _atom_site_fract_occupancy
 As  As1  1  0.00000  0.00000  0.77809  1
 As  As2  1  0.00000  0.00000  0.23836  1
 As  As3  1  0.66667  0.33333  0.08164  1
 As  As4  1  0.66667  0.33333  0.55792  1
 As  As5  1  0.33333  0.66667  0.42756  1
 Nb  Nb1  1  0.33333  0.66667  0.91644  1
