CIF file written using JARVIS-Tools package.
data_NdP3
_symmetry_space_group_name_H-M  'Cm'
_cell_length_a       3.74796
_cell_length_b       4.13907
_cell_length_c       5.73096
_cell_angle_alpha    93.9654
_cell_angle_beta     109.086
_cell_angle_gamma    90

_symmetry_Int_Tables_number  8
_chemical_formula_structural  NdP3
_chemical_formula_sum  NdP3
_cell_volume  83.79214879513636
_cell_formula_units_Z  1
loop_
  _symmetry_equiv_pos_site_id
 _symmetry_equiv_pos_as_xyz
 1  'x, y, z'
loop_
 _atom_site_type_symbol
 _atom_site_label
 _atom_site_symmetry_multiplicity
 _atom_site_fract_x
 _atom_site_fract_y
 _atom_site_fract_z
 _atom_site_fract_occupancy
 Nd  Nd1  1  0.33849  -0.01742  0.67698  1
 P  P1  1  0.62013  0.08043  0.24026  1
 P  P2  1  0.12122  0.43883  0.24245  1
 P  P3  1  0.92015  0.49816  0.84031  1
