CIF file written using JARVIS-Tools package.
data_SmVO3
_symmetry_space_group_name_H-M  'Pnma'
_cell_length_a       5.367
_cell_length_b       5.65326
_cell_length_c       7.69899
_cell_angle_alpha    90
_cell_angle_beta     90
_cell_angle_gamma    90

_symmetry_Int_Tables_number  62
_chemical_formula_structural  SmVO3
_chemical_formula_sum  Sm4V4O2
_cell_volume  233.5955783036405
_cell_formula_units_Z  4
loop_
  _symmetry_equiv_pos_site_id
 _symmetry_equiv_pos_as_xyz
 1  'x, y, z'
loop_
 _atom_site_type_symbol
 _atom_site_label
 _atom_site_symmetry_multiplicity
 _atom_site_fract_x
 _atom_site_fract_y
 _atom_site_fract_z
 _atom_site_fract_occupancy
 O  O1  1  0.90419  0.97074  0.25000  1
 O  O2  1  0.30225  0.79836  0.45061  1
 O  O3  1  0.40419  0.52926  0.75000  1
 O  O4  1  0.80225  0.70164  0.54939  1
 O  O5  1  0.19775  0.29836  0.45061  1
 O  O6  1  0.69775  0.20164  0.54939  1
 O  O7  1  0.19775  0.29836  0.04939  1
 O  O8  1  0.30225  0.79836  0.04939  1
 O  O9  1  0.69775  0.20164  0.95061  1
 O  O10  1  0.59581  0.47074  0.25000  1
 O  O11  1  0.09581  0.02926  0.75000  1
 O  O12  1  0.80225  0.70164  0.95061  1
 Sm  Sm1  1  0.51585  0.93757  0.75000  1
 Sm  Sm2  1  0.48415  0.06243  0.25000  1
 Sm  Sm3  1  0.01585  0.56243  0.25000  1
 Sm  Sm4  1  0.98415  0.43757  0.75000  1
 V  V1  1  0.50000  0.50000  0.00000  1
 V  V2  1  0.00000  0.00000  0.00000  1
 V  V3  1  0.50000  0.50000  0.50000  1
 V  V4  1  0.00000  0.00000  0.50000  1
