CIF file written using JARVIS-Tools package.
data_PH3
_symmetry_space_group_name_H-M  'Cm'
_cell_length_a       5.15093
_cell_length_b       4.18684
_cell_length_c       2.56643
_cell_angle_alpha    72.3273
_cell_angle_beta     120.171
_cell_angle_gamma    127.777

_symmetry_Int_Tables_number  8
_chemical_formula_structural  PH3
_chemical_formula_sum  PH3
_cell_volume  37.81971630651104
_cell_formula_units_Z  1
loop_
  _symmetry_equiv_pos_site_id
 _symmetry_equiv_pos_as_xyz
 1  'x, y, z'
loop_
 _atom_site_type_symbol
 _atom_site_label
 _atom_site_symmetry_multiplicity
 _atom_site_fract_x
 _atom_site_fract_y
 _atom_site_fract_z
 _atom_site_fract_occupancy
 H  H1  1  0.96299  0.88431  0.10208  1
 H  H2  1  0.14591  0.46573  0.49132  1
 H  H3  1  0.36137  0.46571  0.70672  1
 P  P1  1  0.74808  0.45461  0.09844  1
