CIF file written using JARVIS-Tools package.
data_P3N
_symmetry_space_group_name_H-M  'Cm'
_cell_length_a       3.04332
_cell_length_b       4.35046
_cell_length_c       5.21753
_cell_angle_alpha    87.5429
_cell_angle_beta     106.956
_cell_angle_gamma    90

_symmetry_Int_Tables_number  8
_chemical_formula_structural  P3N
_chemical_formula_sum  P3N
_cell_volume  66.00982142702141
_cell_formula_units_Z  1
loop_
  _symmetry_equiv_pos_site_id
 _symmetry_equiv_pos_as_xyz
 1  'x, y, z'
loop_
 _atom_site_type_symbol
 _atom_site_label
 _atom_site_symmetry_multiplicity
 _atom_site_fract_x
 _atom_site_fract_y
 _atom_site_fract_z
 _atom_site_fract_occupancy
 N  N1  1  0.42767  0.88547  0.85534  1
 P  P1  1  0.58951  0.04936  0.17902  1
 P  P2  1  0.09474  0.39811  0.18948  1
 P  P3  1  0.88808  0.66706  0.77617  1
