CIF file written using JARVIS-Tools package.
data_DyGa3
_symmetry_space_group_name_H-M  'Cm'
_cell_length_a       5.58591
_cell_length_b       5.58591
_cell_length_c       4.15247
_cell_angle_alpha    68.4511
_cell_angle_beta     111.549
_cell_angle_gamma    137.172

_symmetry_Int_Tables_number  8
_chemical_formula_structural  DyGa3
_chemical_formula_sum  DyGa3
_cell_volume  80.9348948349139
_cell_formula_units_Z  1
loop_
  _symmetry_equiv_pos_site_id
 _symmetry_equiv_pos_as_xyz
 1  'x, y, z'
loop_
 _atom_site_type_symbol
 _atom_site_label
 _atom_site_symmetry_multiplicity
 _atom_site_fract_x
 _atom_site_fract_y
 _atom_site_fract_z
 _atom_site_fract_occupancy
 Dy  Dy1  1  0.09979  0.90021  0.84965  1
 Ga  Ga1  1  0.36565  0.63435  0.61733  1
 Ga  Ga2  1  0.86397  0.13603  0.11321  1
 Ga  Ga3  1  0.67060  0.32940  0.41982  1
