CIF file written using JARVIS-Tools package.
data_AlGa3
_symmetry_space_group_name_H-M  'Cm'
_cell_length_a       4.48567
_cell_length_b       4.48567
_cell_length_c       4.58898
_cell_angle_alpha    89.9865
_cell_angle_beta     90.0135
_cell_angle_gamma    119.217

_symmetry_Int_Tables_number  8
_chemical_formula_structural  AlGa3
_chemical_formula_sum  AlGa3
_cell_volume  80.58856416251692
_cell_formula_units_Z  1
loop_
  _symmetry_equiv_pos_site_id
 _symmetry_equiv_pos_as_xyz
 1  'x, y, z'
loop_
 _atom_site_type_symbol
 _atom_site_label
 _atom_site_symmetry_multiplicity
 _atom_site_fract_x
 _atom_site_fract_y
 _atom_site_fract_z
 _atom_site_fract_occupancy
 Al  Al1  1  0.15936  0.84064  0.91848  1
 Ga  Ga1  1  0.34231  0.65769  0.41611  1
 Ga  Ga2  1  0.84507  0.15493  0.08092  1
 Ga  Ga3  1  0.65326  0.34674  0.58449  1
