CIF file written using JARVIS-Tools package.
data_Tb2Ge5Rh3
_symmetry_space_group_name_H-M  'Ibam'
_cell_length_a       8.37772
_cell_length_b       8.37772
_cell_length_c       5.9993
_cell_angle_alpha    69.0197
_cell_angle_beta     69.0198
_cell_angle_gamma    90.9137

_symmetry_Int_Tables_number  72
_chemical_formula_structural  Tb2Ge5Rh3
_chemical_formula_sum  Tb4Ge0Rh6
_cell_volume  362.0361088207945
_cell_formula_units_Z  2
loop_
  _symmetry_equiv_pos_site_id
 _symmetry_equiv_pos_as_xyz
 1  'x, y, z'
loop_
 _atom_site_type_symbol
 _atom_site_label
 _atom_site_symmetry_multiplicity
 _atom_site_fract_x
 _atom_site_fract_y
 _atom_site_fract_z
 _atom_site_fract_occupancy
 Ge  Ge1  1  0.26024  0.06759  0.33611  1
 Ge  Ge2  1  0.22024  0.77976  0.25000  1
 Ge  Ge3  1  0.77976  0.22024  0.75000  1
 Ge  Ge4  1  0.49999  0.50001  0.25000  1
 Ge  Ge5  1  0.50001  0.49999  0.75000  1
 Ge  Ge6  1  0.77977  0.22023  0.25000  1
 Ge  Ge7  1  0.93241  0.73976  0.16389  1
 Ge  Ge8  1  0.73976  0.93241  0.66389  1
 Ge  Ge9  1  0.06759  0.26024  0.83611  1
 Ge  Ge10  1  0.22023  0.77977  0.75000  1
 Rh  Rh1  1  0.74917  0.46423  0.39329  1
 Rh  Rh2  1  0.46423  0.74917  0.89329  1
 Rh  Rh3  1  0.25083  0.53577  0.60671  1
 Rh  Rh4  1  -0.00001  0.00001  0.75000  1
 Rh  Rh5  1  0.00001  -0.00001  0.25000  1
 Rh  Rh6  1  0.53577  0.25083  0.10671  1
 Tb  Tb1  1  0.59372  0.86428  0.27098  1
 Tb  Tb2  1  0.13572  0.40628  0.22902  1
 Tb  Tb3  1  0.40628  0.13572  0.72902  1
 Tb  Tb4  1  0.86428  0.59372  0.77098  1
