CIF file written using JARVIS-Tools package.
data_PuP3
_symmetry_space_group_name_H-M  'Cm'
_cell_length_a       3.69745
_cell_length_b       3.97379
_cell_length_c       5.51401
_cell_angle_alpha    94.0768
_cell_angle_beta     109.589
_cell_angle_gamma    90

_symmetry_Int_Tables_number  8
_chemical_formula_structural  PuP3
_chemical_formula_sum  PuP3
_cell_volume  76.10966927814987
_cell_formula_units_Z  1
loop_
  _symmetry_equiv_pos_site_id
 _symmetry_equiv_pos_as_xyz
 1  'x, y, z'
loop_
 _atom_site_type_symbol
 _atom_site_label
 _atom_site_symmetry_multiplicity
 _atom_site_fract_x
 _atom_site_fract_y
 _atom_site_fract_z
 _atom_site_fract_occupancy
 P  P1  1  0.61993  0.05776  0.23985  1
 P  P2  1  0.12727  0.43911  0.25454  1
 P  P3  1  0.91697  0.51075  0.83394  1
 Pu  Pu1  1  0.33584  -0.00762  0.67167  1
