CIF file written using JARVIS-Tools package.
data_BeGa3
_symmetry_space_group_name_H-M  'Cm'
_cell_length_a       4.29147
_cell_length_b       4.29148
_cell_length_c       4.48323
_cell_angle_alpha    90.4589
_cell_angle_beta     89.5411
_cell_angle_gamma    124.907

_symmetry_Int_Tables_number  8
_chemical_formula_structural  BeGa3
_chemical_formula_sum  BeGa3
_cell_volume  67.70858188228074
_cell_formula_units_Z  1
loop_
  _symmetry_equiv_pos_site_id
 _symmetry_equiv_pos_as_xyz
 1  'x, y, z'
loop_
 _atom_site_type_symbol
 _atom_site_label
 _atom_site_symmetry_multiplicity
 _atom_site_fract_x
 _atom_site_fract_y
 _atom_site_fract_z
 _atom_site_fract_occupancy
 Be  Be1  1  0.18806  0.81194  0.91824  1
 Ga  Ga1  1  0.31342  0.68658  0.41071  1
 Ga  Ga2  1  0.88518  0.11482  0.02857  1
 Ga  Ga3  1  0.61334  0.38666  0.64248  1
