CIF file written using JARVIS-Tools package.
data_P3Pt
_symmetry_space_group_name_H-M  'Cm'
_cell_length_a       3.40011
_cell_length_b       3.78785
_cell_length_c       5.6559
_cell_angle_alpha    71.4602
_cell_angle_beta     107.492
_cell_angle_gamma    89.9999

_symmetry_Int_Tables_number  8
_chemical_formula_structural  P3Pt
_chemical_formula_sum  P3Pt
_cell_volume  65.49997480376669
_cell_formula_units_Z  1
loop_
  _symmetry_equiv_pos_site_id
 _symmetry_equiv_pos_as_xyz
 1  'x, y, z'
loop_
 _atom_site_type_symbol
 _atom_site_label
 _atom_site_symmetry_multiplicity
 _atom_site_fract_x
 _atom_site_fract_y
 _atom_site_fract_z
 _atom_site_fract_occupancy
 P  P1  1  0.60365  -0.05330  0.20731  1
 P  P2  1  0.13096  0.29960  0.26192  1
 P  P3  1  0.89360  0.62095  0.78720  1
 Pt  Pt1  1  0.37179  0.13275  0.74357  1
