CIF file written using JARVIS-Tools package.
data_P3O
_symmetry_space_group_name_H-M  'Cm'
_cell_length_a       3.08463
_cell_length_b       3.83802
_cell_length_c       6.04078
_cell_angle_alpha    72.3061
_cell_angle_beta     104.792
_cell_angle_gamma    90

_symmetry_Int_Tables_number  8
_chemical_formula_structural  P3O
_chemical_formula_sum  P3O
_cell_volume  65.64047603662178
_cell_formula_units_Z  1
loop_
  _symmetry_equiv_pos_site_id
 _symmetry_equiv_pos_as_xyz
 1  'x, y, z'
loop_
 _atom_site_type_symbol
 _atom_site_label
 _atom_site_symmetry_multiplicity
 _atom_site_fract_x
 _atom_site_fract_y
 _atom_site_fract_z
 _atom_site_fract_occupancy
 O  O1  1  0.38579  0.87503  0.77159  1
 P  P1  1  0.64323  0.03047  0.28646  1
 P  P2  1  0.09491  0.43481  0.18981  1
 P  P3  1  0.87607  0.65969  0.75214  1
