CIF file written using JARVIS-Tools package.
data_InHO2
_symmetry_space_group_name_H-M  'P2_13'
_cell_length_a       5.39202
_cell_length_b       5.39202
_cell_length_c       5.39202
_cell_angle_alpha    90
_cell_angle_beta     90
_cell_angle_gamma    90

_symmetry_Int_Tables_number  198
_chemical_formula_structural  InHO2
_chemical_formula_sum  In4H4O8
_cell_volume  156.76679628274968
_cell_formula_units_Z  4
loop_
  _symmetry_equiv_pos_site_id
 _symmetry_equiv_pos_as_xyz
 1  'x, y, z'
loop_
 _atom_site_type_symbol
 _atom_site_label
 _atom_site_symmetry_multiplicity
 _atom_site_fract_x
 _atom_site_fract_y
 _atom_site_fract_z
 _atom_site_fract_occupancy
 H  H1  1  0.02361  0.52361  0.97639  1
 H  H2  1  0.52361  0.97639  0.02361  1
 H  H3  1  0.97639  0.02361  0.52361  1
 H  H4  1  0.47639  0.47639  0.47639  1
 In  In1  1  0.48982  0.98982  0.51018  1
 In  In2  1  0.98982  0.51018  0.48982  1
 In  In3  1  0.51018  0.48982  0.98982  1
 In  In4  1  0.01018  0.01018  0.01018  1
 O  O1  1  0.13609  0.63609  0.86391  1
 O  O2  1  0.63609  0.86391  0.13609  1
 O  O3  1  0.86391  0.13609  0.63609  1
 O  O4  1  0.36391  0.36391  0.36391  1
 O  O5  1  0.86555  0.36555  0.13445  1
 O  O6  1  0.36555  0.13445  0.86555  1
 O  O7  1  0.13445  0.86555  0.36555  1
 O  O8  1  0.63445  0.63445  0.63445  1
