CIF file written using JARVIS-Tools package.
data_P3S
_symmetry_space_group_name_H-M  'Cm'
_cell_length_a       3.24283
_cell_length_b       4.20845
_cell_length_c       6.23741
_cell_angle_alpha    92.5974
_cell_angle_beta     105.067
_cell_angle_gamma    90.0001

_symmetry_Int_Tables_number  8
_chemical_formula_structural  P3S
_chemical_formula_sum  P3S
_cell_volume  82.10696288332305
_cell_formula_units_Z  1
loop_
  _symmetry_equiv_pos_site_id
 _symmetry_equiv_pos_as_xyz
 1  'x, y, z'
loop_
 _atom_site_type_symbol
 _atom_site_label
 _atom_site_symmetry_multiplicity
 _atom_site_fract_x
 _atom_site_fract_y
 _atom_site_fract_z
 _atom_site_fract_occupancy
 P  P1  1  0.63932  0.21196  0.27863  1
 P  P2  1  0.09373  0.52544  0.18746  1
 P  P3  1  0.90159  0.46698  0.80317  1
 S  S1  1  0.36537  0.79562  0.73074  1
