CIF file written using JARVIS-Tools package.
data_HoGa3
_symmetry_space_group_name_H-M  'Cm'
_cell_length_a       5.55632
_cell_length_b       5.55631
_cell_length_c       4.14448
_cell_angle_alpha    68.3896
_cell_angle_beta     111.61
_cell_angle_gamma    137.035

_symmetry_Int_Tables_number  8
_chemical_formula_structural  HoGa3
_chemical_formula_sum  HoGa3
_cell_volume  80.08435553144898
_cell_formula_units_Z  1
loop_
  _symmetry_equiv_pos_site_id
 _symmetry_equiv_pos_as_xyz
 1  'x, y, z'
loop_
 _atom_site_type_symbol
 _atom_site_label
 _atom_site_symmetry_multiplicity
 _atom_site_fract_x
 _atom_site_fract_y
 _atom_site_fract_z
 _atom_site_fract_occupancy
 Ga  Ga1  1  0.36628  0.63372  0.61761  1
 Ga  Ga2  1  0.86459  0.13541  0.11394  1
 Ga  Ga3  1  0.66808  0.33192  0.41745  1
 Ho  Ho1  1  0.10104  0.89896  0.85100  1
