CIF file written using JARVIS-Tools package.
data_Ga3Hg
_symmetry_space_group_name_H-M  'Cm'
_cell_length_a       4.74657
_cell_length_b       4.74657
_cell_length_c       4.70353
_cell_angle_alpha    89.3129
_cell_angle_beta     90.6872
_cell_angle_gamma    122.292

_symmetry_Int_Tables_number  8
_chemical_formula_structural  Ga3Hg
_chemical_formula_sum  Ga3Hg
_cell_volume  89.5719052051084
_cell_formula_units_Z  1
loop_
  _symmetry_equiv_pos_site_id
 _symmetry_equiv_pos_as_xyz
 1  'x, y, z'
loop_
 _atom_site_type_symbol
 _atom_site_label
 _atom_site_symmetry_multiplicity
 _atom_site_fract_x
 _atom_site_fract_y
 _atom_site_fract_z
 _atom_site_fract_occupancy
 Ga  Ga1  1  0.36031  0.63969  0.43794  1
 Ga  Ga2  1  0.83522  0.16478  0.07761  1
 Ga  Ga3  1  0.66469  0.33531  0.55824  1
 Hg  Hg1  1  0.13979  0.86021  0.92622  1
