CIF file written using JARVIS-Tools package.
data_Bi2O3
_symmetry_space_group_name_H-M  'P6_3mc'
_cell_length_a       7.72229
_cell_length_b       7.72229
_cell_length_c       5.98376
_cell_angle_alpha    90
_cell_angle_beta     90
_cell_angle_gamma    120

_symmetry_Int_Tables_number  186
_chemical_formula_structural  Bi2O3
_chemical_formula_sum  Bi8O2
_cell_volume  309.0277686542239
_cell_formula_units_Z  4
loop_
  _symmetry_equiv_pos_site_id
 _symmetry_equiv_pos_as_xyz
 1  'x, y, z'
loop_
 _atom_site_type_symbol
 _atom_site_label
 _atom_site_symmetry_multiplicity
 _atom_site_fract_x
 _atom_site_fract_y
 _atom_site_fract_z
 _atom_site_fract_occupancy
 Bi  Bi1  1  0.17625  0.35250  0.22643  1
 Bi  Bi2  1  0.17625  0.82375  0.22643  1
 Bi  Bi3  1  0.64750  0.82375  0.22643  1
 Bi  Bi4  1  0.82375  0.64750  0.72643  1
 Bi  Bi5  1  0.82375  0.17625  0.72643  1
 Bi  Bi6  1  0.35250  0.17625  0.72643  1
 Bi  Bi7  1  0.66667  0.33333  0.22859  1
 Bi  Bi8  1  0.33333  0.66667  0.72859  1
 O  O1  1  0.46273  0.53727  0.50627  1
 O  O2  1  0.12913  0.87087  0.83745  1
 O  O3  1  0.46273  0.92547  0.50627  1
 O  O4  1  0.53727  0.46273  0.00627  1
 O  O5  1  0.07453  0.53727  0.50627  1
 O  O6  1  0.25827  0.12913  0.33745  1
 O  O7  1  0.87087  0.74173  0.33745  1
 O  O8  1  0.87087  0.12913  0.33745  1
 O  O9  1  0.92547  0.46273  0.00627  1
 O  O10  1  0.12913  0.25827  0.83745  1
 O  O11  1  0.53727  0.07453  0.00627  1
 O  O12  1  0.74173  0.87087  0.83745  1
