CIF file written using JARVIS-Tools package.
data_KGa3
_symmetry_space_group_name_H-M  'Cm'
_cell_length_a       5.75358
_cell_length_b       5.75357
_cell_length_c       4.58388
_cell_angle_alpha    69.4613
_cell_angle_beta     110.539
_cell_angle_gamma    132.586

_symmetry_Int_Tables_number  8
_chemical_formula_structural  KGa3
_chemical_formula_sum  KGa3
_cell_volume  103.19621919083338
_cell_formula_units_Z  1
loop_
  _symmetry_equiv_pos_site_id
 _symmetry_equiv_pos_as_xyz
 1  'x, y, z'
loop_
 _atom_site_type_symbol
 _atom_site_label
 _atom_site_symmetry_multiplicity
 _atom_site_fract_x
 _atom_site_fract_y
 _atom_site_fract_z
 _atom_site_fract_occupancy
 Ga  Ga1  1  0.42770  0.57230  0.31236  1
 Ga  Ga2  1  0.81244  0.18756  0.18250  1
 Ga  Ga3  1  0.69641  0.30359  0.57556  1
 K  K1  1  0.06344  0.93656  0.92959  1
