CIF file written using JARVIS-Tools package.
data_Ga3Fe
_symmetry_space_group_name_H-M  'P-3m1'
_cell_length_a       4.15398
_cell_length_b       4.15399
_cell_length_c       4.65498
_cell_angle_alpha    90.0413
_cell_angle_beta     89.9587
_cell_angle_gamma    120.016

_symmetry_Int_Tables_number  164
_chemical_formula_structural  Ga3Fe
_chemical_formula_sum  Ga3Fe
_cell_volume  69.55211472156809
_cell_formula_units_Z  1
loop_
  _symmetry_equiv_pos_site_id
 _symmetry_equiv_pos_as_xyz
 1  'x, y, z'
loop_
 _atom_site_type_symbol
 _atom_site_label
 _atom_site_symmetry_multiplicity
 _atom_site_fract_x
 _atom_site_fract_y
 _atom_site_fract_z
 _atom_site_fract_occupancy
 Fe  Fe1  1  0.25001  0.74999  0.87500  1
 Ga  Ga1  1  0.24996  0.75004  0.37501  1
 Ga  Ga2  1  0.91669  0.08331  -0.00691  1
 Ga  Ga3  1  0.58333  0.41667  0.75690  1
