CIF file written using JARVIS-Tools package.
data_TbGa3
_symmetry_space_group_name_H-M  'Cm'
_cell_length_a       5.66883
_cell_length_b       5.66883
_cell_length_c       4.09852
_cell_angle_alpha    68.9914
_cell_angle_beta     111.008
_cell_angle_gamma    137.608

_symmetry_Int_Tables_number  8
_chemical_formula_structural  TbGa3
_chemical_formula_sum  TbGa3
_cell_volume  81.97061187314746
_cell_formula_units_Z  1
loop_
  _symmetry_equiv_pos_site_id
 _symmetry_equiv_pos_as_xyz
 1  'x, y, z'
loop_
 _atom_site_type_symbol
 _atom_site_label
 _atom_site_symmetry_multiplicity
 _atom_site_fract_x
 _atom_site_fract_y
 _atom_site_fract_z
 _atom_site_fract_occupancy
 Ga  Ga1  1  0.36322  0.63678  0.61331  1
 Ga  Ga2  1  0.86368  0.13632  0.11352  1
 Ga  Ga3  1  0.67645  0.32355  0.42634  1
 Tb  Tb1  1  0.09666  0.90334  0.84683  1
