CIF file written using JARVIS-Tools package.
data_Ga3S
_symmetry_space_group_name_H-M  'Cmmm'
_cell_length_a       4.89939
_cell_length_b       4.89938
_cell_length_c       3.58716
_cell_angle_alpha    90.001
_cell_angle_beta     89.9989
_cell_angle_gamma    111.585

_symmetry_Int_Tables_number  65
_chemical_formula_structural  Ga3S
_chemical_formula_sum  Ga3S
_cell_volume  80.06746050156617
_cell_formula_units_Z  1
loop_
  _symmetry_equiv_pos_site_id
 _symmetry_equiv_pos_as_xyz
 1  'x, y, z'
loop_
 _atom_site_type_symbol
 _atom_site_label
 _atom_site_symmetry_multiplicity
 _atom_site_fract_x
 _atom_site_fract_y
 _atom_site_fract_z
 _atom_site_fract_occupancy
 Ga  Ga1  1  0.35574  0.64426  0.24991  1
 Ga  Ga2  1  0.89426  0.10574  0.24998  1
 Ga  Ga3  1  0.62499  0.37501  0.75002  1
 S  S1  1  0.12501  0.87499  0.75008  1
