CIF file written using JARVIS-Tools package.
data_NbGa3
_symmetry_space_group_name_H-M  'I4/mmm'
_cell_length_a       5.16979
_cell_length_b       5.16979
_cell_length_c       3.82213
_cell_angle_alpha    68.3836
_cell_angle_beta     111.616
_cell_angle_gamma    136.601

_symmetry_Int_Tables_number  139
_chemical_formula_structural  NbGa3
_chemical_formula_sum  NbGa3
_cell_volume  64.43444687030703
_cell_formula_units_Z  1
loop_
  _symmetry_equiv_pos_site_id
 _symmetry_equiv_pos_as_xyz
 1  'x, y, z'
loop_
 _atom_site_type_symbol
 _atom_site_label
 _atom_site_symmetry_multiplicity
 _atom_site_fract_x
 _atom_site_fract_y
 _atom_site_fract_z
 _atom_site_fract_occupancy
 Ga  Ga1  1  0.37502  0.62498  0.62512  1
 Ga  Ga2  1  0.87497  0.12503  0.12488  1
 Ga  Ga3  1  0.62505  0.37495  0.37504  1
 Nb  Nb1  1  0.12496  0.87504  -0.12504  1
