CIF file written using JARVIS-Tools package.
data_Ga3Rh
_symmetry_space_group_name_H-M  'P4_2/mnm'
_cell_length_a       6.54797
_cell_length_b       6.54797
_cell_length_c       6.68358
_cell_angle_alpha    90
_cell_angle_beta     90
_cell_angle_gamma    90

_symmetry_Int_Tables_number  136
_chemical_formula_structural  Ga3Rh
_chemical_formula_sum  Ga2Rh4
_cell_volume  286.5652244030273
_cell_formula_units_Z  4
loop_
  _symmetry_equiv_pos_site_id
 _symmetry_equiv_pos_as_xyz
 1  'x, y, z'
loop_
 _atom_site_type_symbol
 _atom_site_label
 _atom_site_symmetry_multiplicity
 _atom_site_fract_x
 _atom_site_fract_y
 _atom_site_fract_z
 _atom_site_fract_occupancy
 Ga  Ga1  1  0.00000  0.50000  0.50000  1
 Ga  Ga2  1  0.50000  0.00000  0.00000  1
 Ga  Ga3  1  0.50000  0.00000  0.50000  1
 Ga  Ga4  1  0.00000  0.50000  0.00000  1
 Ga  Ga5  1  0.35564  0.64436  0.24790  1
 Ga  Ga6  1  0.64436  0.35564  0.24790  1
 Ga  Ga7  1  0.14436  0.14436  0.74790  1
 Ga  Ga8  1  0.85564  0.85564  0.74790  1
 Ga  Ga9  1  0.64436  0.35564  0.75210  1
 Ga  Ga10  1  0.35564  0.64436  0.75210  1
 Ga  Ga11  1  0.85564  0.85564  0.25210  1
 Ga  Ga12  1  0.14436  0.14436  0.25210  1
 Rh  Rh1  1  0.16095  0.83905  0.50000  1
 Rh  Rh2  1  0.83905  0.16095  0.50000  1
 Rh  Rh3  1  0.33905  0.33905  0.00000  1
 Rh  Rh4  1  0.66095  0.66095  0.00000  1
