CIF file written using JARVIS-Tools package.
data_P3Se
_symmetry_space_group_name_H-M  'Cm'
_cell_length_a       3.35525
_cell_length_b       4.16273
_cell_length_c       6.41539
_cell_angle_alpha    89.4924
_cell_angle_beta     105.159
_cell_angle_gamma    89.9999

_symmetry_Int_Tables_number  8
_chemical_formula_structural  P3Se
_chemical_formula_sum  P3Se
_cell_volume  86.4822182980322
_cell_formula_units_Z  1
loop_
  _symmetry_equiv_pos_site_id
 _symmetry_equiv_pos_as_xyz
 1  'x, y, z'
loop_
 _atom_site_type_symbol
 _atom_site_label
 _atom_site_symmetry_multiplicity
 _atom_site_fract_x
 _atom_site_fract_y
 _atom_site_fract_z
 _atom_site_fract_occupancy
 P  P1  1  0.63704  0.19535  0.27408  1
 P  P2  1  0.09425  0.51821  0.18849  1
 P  P3  1  0.91029  0.46431  0.82057  1
 Se  Se1  1  0.35843  0.82213  0.71686  1
