CIF file written using JARVIS-Tools package.
data_H2C
_symmetry_space_group_name_H-M  'Pm'
_cell_length_a       3.02568
_cell_length_b       1.78651
_cell_length_c       2.612
_cell_angle_alpha    90
_cell_angle_beta     85.8719
_cell_angle_gamma    90

_symmetry_Int_Tables_number  6
_chemical_formula_structural  H2C
_chemical_formula_sum  H2C
_cell_volume  14.082320546885272
_cell_formula_units_Z  1
loop_
  _symmetry_equiv_pos_site_id
 _symmetry_equiv_pos_as_xyz
 1  'x, y, z'
loop_
 _atom_site_type_symbol
 _atom_site_label
 _atom_site_symmetry_multiplicity
 _atom_site_fract_x
 _atom_site_fract_y
 _atom_site_fract_z
 _atom_site_fract_occupancy
 C  C1  1  0.38150  0.00000  0.00488  1
 H  H1  1  -0.25733  0.00000  -0.04569  1
 H  H2  1  0.27583  0.00000  0.44082  1
