CIF file written using JARVIS-Tools package.
data_SiP3
_symmetry_space_group_name_H-M  'Cm'
_cell_length_a       3.44418
_cell_length_b       4.11989
_cell_length_c       5.53808
_cell_angle_alpha    85.9204
_cell_angle_beta     108.117
_cell_angle_gamma    90.0001

_symmetry_Int_Tables_number  8
_chemical_formula_structural  SiP3
_chemical_formula_sum  SiP3
_cell_volume  74.47787170541346
_cell_formula_units_Z  1
loop_
  _symmetry_equiv_pos_site_id
 _symmetry_equiv_pos_as_xyz
 1  'x, y, z'
loop_
 _atom_site_type_symbol
 _atom_site_label
 _atom_site_symmetry_multiplicity
 _atom_site_fract_x
 _atom_site_fract_y
 _atom_site_fract_z
 _atom_site_fract_occupancy
 P  P1  1  0.61134  0.06041  0.22267  1
 P  P2  1  0.10211  0.42028  0.20422  1
 P  P3  1  0.89150  0.57656  0.78301  1
 Si  Si1  1  0.39505  0.94275  0.79010  1
