CIF file written using JARVIS-Tools package.
data_ScP3
_symmetry_space_group_name_H-M  'Cm'
_cell_length_a       3.53381
_cell_length_b       3.83951
_cell_length_c       5.35471
_cell_angle_alpha    94.1398
_cell_angle_beta     109.267
_cell_angle_gamma    89.9999

_symmetry_Int_Tables_number  8
_chemical_formula_structural  ScP3
_chemical_formula_sum  ScP3
_cell_volume  68.38311696233302
_cell_formula_units_Z  1
loop_
  _symmetry_equiv_pos_site_id
 _symmetry_equiv_pos_as_xyz
 1  'x, y, z'
loop_
 _atom_site_type_symbol
 _atom_site_label
 _atom_site_symmetry_multiplicity
 _atom_site_fract_x
 _atom_site_fract_y
 _atom_site_fract_z
 _atom_site_fract_occupancy
 P  P1  1  0.62146  0.06910  0.24292  1
 P  P2  1  0.12854  0.46154  0.25708  1
 P  P3  1  0.91060  0.49406  0.82120  1
 Sc  Sc1  1  0.33940  -0.02470  0.67880  1
