CIF file written using JARVIS-Tools package.
data_TaGa3
_symmetry_space_group_name_H-M  'Amm2'
_cell_length_a       5.36826
_cell_length_b       5.36826
_cell_length_c       4.69254
_cell_angle_alpha    90.0004
_cell_angle_beta     89.9996
_cell_angle_gamma    148.701

_symmetry_Int_Tables_number  38
_chemical_formula_structural  TaGa3
_chemical_formula_sum  TaGa3
_cell_volume  70.25364367247623
_cell_formula_units_Z  1
loop_
  _symmetry_equiv_pos_site_id
 _symmetry_equiv_pos_as_xyz
 1  'x, y, z'
loop_
 _atom_site_type_symbol
 _atom_site_label
 _atom_site_symmetry_multiplicity
 _atom_site_fract_x
 _atom_site_fract_y
 _atom_site_fract_z
 _atom_site_fract_occupancy
 Ga  Ga1  1  0.32248  0.67752  0.50004  1
 Ga  Ga2  1  0.91245  0.08755  0.00018  1
 Ga  Ga3  1  0.59057  0.40943  0.49988  1
 Ta  Ta1  1  0.17449  0.82551  -0.00011  1
