CIF file written using JARVIS-Tools package.
data_VGa3
_symmetry_space_group_name_H-M  'I4/mmm'
_cell_length_a       5.00594
_cell_length_b       5.00594
_cell_length_c       3.73259
_cell_angle_alpha    111.756
_cell_angle_beta     68.2442
_cell_angle_gamma    136.284

_symmetry_Int_Tables_number  139
_chemical_formula_structural  VGa3
_chemical_formula_sum  VGa3
_cell_volume  59.26355653300229
_cell_formula_units_Z  1
loop_
  _symmetry_equiv_pos_site_id
 _symmetry_equiv_pos_as_xyz
 1  'x, y, z'
loop_
 _atom_site_type_symbol
 _atom_site_label
 _atom_site_symmetry_multiplicity
 _atom_site_fract_x
 _atom_site_fract_y
 _atom_site_fract_z
 _atom_site_fract_occupancy
 Ga  Ga1  1  0.37507  0.62493  0.37471  1
 Ga  Ga2  1  0.87492  0.12508  -0.12469  1
 Ga  Ga3  1  0.62499  0.37501  0.62500  1
 V  V1  1  0.12503  0.87497  0.12497  1
