CIF file written using JARVIS-Tools package.
data_SmP3
_symmetry_space_group_name_H-M  'Cm'
_cell_length_a       3.71846
_cell_length_b       4.08885
_cell_length_c       5.66627
_cell_angle_alpha    93.8866
_cell_angle_beta     109.155
_cell_angle_gamma    90.0001

_symmetry_Int_Tables_number  8
_chemical_formula_structural  SmP3
_chemical_formula_sum  SmP3
_cell_volume  81.17163056570138
_cell_formula_units_Z  1
loop_
  _symmetry_equiv_pos_site_id
 _symmetry_equiv_pos_as_xyz
 1  'x, y, z'
loop_
 _atom_site_type_symbol
 _atom_site_label
 _atom_site_symmetry_multiplicity
 _atom_site_fract_x
 _atom_site_fract_y
 _atom_site_fract_z
 _atom_site_fract_occupancy
 P  P1  1  0.62063  0.07830  0.24126  1
 P  P2  1  0.12226  0.44218  0.24452  1
 P  P3  1  0.91835  0.49749  0.83671  1
 Sm  Sm1  1  0.33876  -0.01797  0.67751  1
