CIF file written using JARVIS-Tools package.
data_TlP3
_symmetry_space_group_name_H-M  'Cm'
_cell_length_a       3.27417
_cell_length_b       5.1616
_cell_length_c       5.7791
_cell_angle_alpha    83.8521
_cell_angle_beta     106.456
_cell_angle_gamma    90

_symmetry_Int_Tables_number  8
_chemical_formula_structural  TlP3
_chemical_formula_sum  TlP3
_cell_volume  93.08010858893344
_cell_formula_units_Z  1
loop_
  _symmetry_equiv_pos_site_id
 _symmetry_equiv_pos_as_xyz
 1  'x, y, z'
loop_
 _atom_site_type_symbol
 _atom_site_label
 _atom_site_symmetry_multiplicity
 _atom_site_fract_x
 _atom_site_fract_y
 _atom_site_fract_z
 _atom_site_fract_occupancy
 P  P1  1  0.62445  0.11400  0.24889  1
 P  P2  1  0.10266  0.41325  0.20533  1
 P  P3  1  0.90398  0.49673  0.80796  1
 Tl  Tl1  1  0.36891  0.97601  0.73782  1
