CIF file written using JARVIS-Tools package.
data_NpPd3
_symmetry_space_group_name_H-M  'P6_3/mmc'
_cell_length_a       5.84157
_cell_length_b       5.84157
_cell_length_c       9.61391
_cell_angle_alpha    90
_cell_angle_beta     90
_cell_angle_gamma    120.008

_symmetry_Int_Tables_number  194
_chemical_formula_structural  NpPd3
_chemical_formula_sum  Np4Pd2
_cell_volume  284.0880152537021
_cell_formula_units_Z  4
loop_
  _symmetry_equiv_pos_site_id
 _symmetry_equiv_pos_as_xyz
 1  'x, y, z'
loop_
 _atom_site_type_symbol
 _atom_site_label
 _atom_site_symmetry_multiplicity
 _atom_site_fract_x
 _atom_site_fract_y
 _atom_site_fract_z
 _atom_site_fract_occupancy
 Np  Np1  1  0.00000  0.00000  0.50000  1
 Np  Np2  1  0.00000  0.00000  0.00000  1
 Np  Np3  1  0.66673  0.33327  0.75000  1
 Np  Np4  1  0.33327  0.66673  0.25000  1
 Pd  Pd1  1  0.50000  -0.00000  0.50000  1
 Pd  Pd2  1  0.50000  0.50000  0.50000  1
 Pd  Pd3  1  -0.00000  0.50000  0.50000  1
 Pd  Pd4  1  0.50000  -0.00000  0.00000  1
 Pd  Pd5  1  0.50000  0.50000  0.00000  1
 Pd  Pd6  1  -0.00000  0.50000  0.00000  1
 Pd  Pd7  1  0.17244  0.82756  0.75000  1
 Pd  Pd8  1  0.65525  0.82754  0.75000  1
 Pd  Pd9  1  0.17246  0.34475  0.75000  1
 Pd  Pd10  1  0.82756  0.17244  0.25000  1
 Pd  Pd11  1  0.34475  0.17246  0.25000  1
 Pd  Pd12  1  0.82754  0.65525  0.25000  1
