CIF file written using JARVIS-Tools package.
data_YbGa3
_symmetry_space_group_name_H-M  'Cm'
_cell_length_a       5.7385
_cell_length_b       5.7385
_cell_length_c       4.2711
_cell_angle_alpha    69.6502
_cell_angle_beta     110.35
_cell_angle_gamma    136.36

_symmetry_Int_Tables_number  8
_chemical_formula_structural  YbGa3
_chemical_formula_sum  YbGa3
_cell_volume  89.99813965673752
_cell_formula_units_Z  1
loop_
  _symmetry_equiv_pos_site_id
 _symmetry_equiv_pos_as_xyz
 1  'x, y, z'
loop_
 _atom_site_type_symbol
 _atom_site_label
 _atom_site_symmetry_multiplicity
 _atom_site_fract_x
 _atom_site_fract_y
 _atom_site_fract_z
 _atom_site_fract_occupancy
 Ga  Ga1  1  0.43654  0.56346  0.32191  1
 Ga  Ga2  1  0.81236  0.18764  0.17903  1
 Ga  Ga3  1  0.68809  0.31191  0.56220  1
 Yb  Yb1  1  0.06301  0.93699  0.93686  1
