CIF file written using JARVIS-Tools package.
data_TiP3
_symmetry_space_group_name_H-M  'Amm2'
_cell_length_a       3.52847
_cell_length_b       3.65302
_cell_length_c       5.03097
_cell_angle_alpha    90.0007
_cell_angle_beta     110.529
_cell_angle_gamma    90.0001

_symmetry_Int_Tables_number  38
_chemical_formula_structural  TiP3
_chemical_formula_sum  TiP3
_cell_volume  60.7289235310881
_cell_formula_units_Z  1
loop_
  _symmetry_equiv_pos_site_id
 _symmetry_equiv_pos_as_xyz
 1  'x, y, z'
loop_
 _atom_site_type_symbol
 _atom_site_label
 _atom_site_symmetry_multiplicity
 _atom_site_fract_x
 _atom_site_fract_y
 _atom_site_fract_z
 _atom_site_fract_occupancy
 P  P1  1  0.62168  0.00003  0.24335  1
 P  P2  1  0.14053  0.49998  0.28106  1
 P  P3  1  0.90947  0.50001  0.81893  1
 Ti  Ti1  1  0.32833  -0.00003  0.65666  1
