CIF file written using JARVIS-Tools package.
data_ScB2Os
_symmetry_space_group_name_H-M  'Pnma'
_cell_length_a       5.20024
_cell_length_b       5.66638
_cell_length_c       6.19049
_cell_angle_alpha    90
_cell_angle_beta     90
_cell_angle_gamma    90

_symmetry_Int_Tables_number  62
_chemical_formula_structural  ScB2Os
_chemical_formula_sum  Sc4B8Os4
_cell_volume  182.41241241650633
_cell_formula_units_Z  4
loop_
  _symmetry_equiv_pos_site_id
 _symmetry_equiv_pos_as_xyz
 1  'x, y, z'
loop_
 _atom_site_type_symbol
 _atom_site_label
 _atom_site_symmetry_multiplicity
 _atom_site_fract_x
 _atom_site_fract_y
 _atom_site_fract_z
 _atom_site_fract_occupancy
 B  B1  1  0.08194  0.35476  0.53155  1
 B  B2  1  0.41806  0.85476  0.96845  1
 B  B3  1  0.58194  0.64524  0.46845  1
 B  B4  1  0.91806  0.14524  0.03155  1
 B  B5  1  0.91806  0.64524  0.46845  1
 B  B6  1  0.58194  0.14524  0.03155  1
 B  B7  1  0.41806  0.35476  0.53155  1
 B  B8  1  0.08194  0.85476  0.96845  1
 Os  Os1  1  0.25000  0.17968  0.82091  1
 Os  Os2  1  0.25000  0.67968  0.67909  1
 Os  Os3  1  0.75000  0.82032  0.17909  1
 Os  Os4  1  0.75000  0.32032  0.32091  1
 Sc  Sc1  1  0.25000  0.01072  0.32947  1
 Sc  Sc2  1  0.25000  0.51072  0.17053  1
 Sc  Sc3  1  0.75000  0.98928  0.67053  1
 Sc  Sc4  1  0.75000  0.48928  0.82947  1
