CIF file written using JARVIS-Tools package.
data_AcSe2
_symmetry_space_group_name_H-M  'C2/m'
_cell_length_a       5.66592
_cell_length_b       4.18033
_cell_length_c       4.17563
_cell_angle_alpha    90
_cell_angle_beta     111.29
_cell_angle_gamma    111.648

_symmetry_Int_Tables_number  12
_chemical_formula_structural  AcSe2
_chemical_formula_sum  AcSe2
_cell_volume  84.62142990682887
_cell_formula_units_Z  1
loop_
  _symmetry_equiv_pos_site_id
 _symmetry_equiv_pos_as_xyz
 1  'x, y, z'
loop_
 _atom_site_type_symbol
 _atom_site_label
 _atom_site_symmetry_multiplicity
 _atom_site_fract_x
 _atom_site_fract_y
 _atom_site_fract_z
 _atom_site_fract_occupancy
 Ac  Ac1  1  0.00000  0.33332  0.16667  1
 Se  Se1  1  0.70654  0.68661  0.50609  1
 Se  Se2  1  0.29346  -0.01993  0.82724  1
