CIF file written using JARVIS-Tools package.
data_Tm2Se3
_symmetry_space_group_name_H-M  'Fddd'
_cell_length_a       13.3216
_cell_length_b       12.7132
_cell_length_c       6.95719
_cell_angle_alpha    79.3924
_cell_angle_beta     69.722
_cell_angle_gamma    30.8856

_symmetry_Int_Tables_number  70
_chemical_formula_structural  Tm2Se3
_chemical_formula_sum  Tm8Se2
_cell_volume  551.4044322408558
_cell_formula_units_Z  4
loop_
  _symmetry_equiv_pos_site_id
 _symmetry_equiv_pos_as_xyz
 1  'x, y, z'
loop_
 _atom_site_type_symbol
 _atom_site_label
 _atom_site_symmetry_multiplicity
 _atom_site_fract_x
 _atom_site_fract_y
 _atom_site_fract_z
 _atom_site_fract_occupancy
 Se  Se1  1  0.58583  0.07781  0.41155  1
 Se  Se2  1  0.00414  0.49586  0.49586  1
 Se  Se3  1  0.92481  0.41155  0.07781  1
 Se  Se4  1  0.24586  0.75414  0.75414  1
 Se  Se5  1  0.75414  0.24586  0.24586  1
 Se  Se6  1  0.49586  0.00414  0.00414  1
 Se  Se7  1  0.83845  0.32519  0.66417  1
 Se  Se8  1  0.32519  0.83845  0.17219  1
 Se  Se9  1  0.17219  0.66417  0.32519  1
 Se  Se10  1  0.07781  0.58583  0.92481  1
 Se  Se11  1  0.41155  0.92481  0.58583  1
 Se  Se12  1  0.66417  0.17219  0.83845  1
 Tm  Tm1  1  0.74779  0.74779  0.25221  1
 Tm  Tm2  1  0.25221  0.25221  0.74779  1
 Tm  Tm3  1  0.50221  0.50221  0.99779  1
 Tm  Tm4  1  0.99779  0.99779  0.50221  1
 Tm  Tm5  1  0.08377  0.08377  0.91623  1
 Tm  Tm6  1  0.91623  0.91623  0.08377  1
 Tm  Tm7  1  0.16623  0.16623  0.33377  1
 Tm  Tm8  1  0.33377  0.33377  0.16623  1
