CIF file written using JARVIS-Tools package.
data_YbP3
_symmetry_space_group_name_H-M  'Cm'
_cell_length_a       3.36821
_cell_length_b       4.40794
_cell_length_c       5.67877
_cell_angle_alpha    96.4847
_cell_angle_beta     107.251
_cell_angle_gamma    90

_symmetry_Int_Tables_number  8
_chemical_formula_structural  YbP3
_chemical_formula_sum  YbP3
_cell_volume  79.95427098593935
_cell_formula_units_Z  1
loop_
  _symmetry_equiv_pos_site_id
 _symmetry_equiv_pos_as_xyz
 1  'x, y, z'
loop_
 _atom_site_type_symbol
 _atom_site_label
 _atom_site_symmetry_multiplicity
 _atom_site_fract_x
 _atom_site_fract_y
 _atom_site_fract_z
 _atom_site_fract_occupancy
 P  P1  1  0.61869  0.08267  0.23738  1
 P  P2  1  0.11910  0.42589  0.23820  1
 P  P3  1  0.92072  0.50657  0.84145  1
 Yb  Yb1  1  0.34149  -0.01513  0.68297  1
