CIF file written using JARVIS-Tools package.
data_TmP3
_symmetry_space_group_name_H-M  'Cm'
_cell_length_a       3.64196
_cell_length_b       3.96757
_cell_length_c       5.5161
_cell_angle_alpha    93.8038
_cell_angle_beta     109.276
_cell_angle_gamma    90

_symmetry_Int_Tables_number  8
_chemical_formula_structural  TmP3
_chemical_formula_sum  TmP3
_cell_volume  75.0517095912748
_cell_formula_units_Z  1
loop_
  _symmetry_equiv_pos_site_id
 _symmetry_equiv_pos_as_xyz
 1  'x, y, z'
loop_
 _atom_site_type_symbol
 _atom_site_label
 _atom_site_symmetry_multiplicity
 _atom_site_fract_x
 _atom_site_fract_y
 _atom_site_fract_z
 _atom_site_fract_occupancy
 P  P1  1  0.62193  0.07378  0.24385  1
 P  P2  1  0.12444  0.45132  0.24887  1
 P  P3  1  0.91378  0.49524  0.82756  1
 Tm  Tm1  1  0.33986  -0.02033  0.67972  1
