CIF file written using JARVIS-Tools package.
data_Sm3Be
_symmetry_space_group_name_H-M  'P-3m1'
_cell_length_a       3.60315
_cell_length_b       3.60315
_cell_length_c       10.0206
_cell_angle_alpha    90
_cell_angle_beta     90
_cell_angle_gamma    120

_symmetry_Int_Tables_number  164
_chemical_formula_structural  Sm3Be
_chemical_formula_sum  Sm3Be
_cell_volume  112.66567276271579
_cell_formula_units_Z  1
loop_
  _symmetry_equiv_pos_site_id
 _symmetry_equiv_pos_as_xyz
 1  'x, y, z'
loop_
 _atom_site_type_symbol
 _atom_site_label
 _atom_site_symmetry_multiplicity
 _atom_site_fract_x
 _atom_site_fract_y
 _atom_site_fract_z
 _atom_site_fract_occupancy
 Be  Be1  1  0.00000  0.00000  0.00000  1
 Sm  Sm1  1  0.00000  0.00000  0.50000  1
 Sm  Sm2  1  0.33333  0.66667  0.20000  1
 Sm  Sm3  1  0.66667  0.33333  0.80000  1
