CIF file written using JARVIS-Tools package.
data_AlSe2
_symmetry_space_group_name_H-M  'C2/m'
_cell_length_a       3.8394
_cell_length_b       3.68004
_cell_length_c       5.4709
_cell_angle_alpha    90
_cell_angle_beta     100.213
_cell_angle_gamma    118.636

_symmetry_Int_Tables_number  12
_chemical_formula_structural  AlSe2
_chemical_formula_sum  AlSe2
_cell_volume  66.44518893848914
_cell_formula_units_Z  1
loop_
  _symmetry_equiv_pos_site_id
 _symmetry_equiv_pos_as_xyz
 1  'x, y, z'
loop_
 _atom_site_type_symbol
 _atom_site_label
 _atom_site_symmetry_multiplicity
 _atom_site_fract_x
 _atom_site_fract_y
 _atom_site_fract_z
 _atom_site_fract_occupancy
 Al  Al1  1  -0.00000  0.33334  0.16667  1
 Se  Se1  1  0.74256  0.70461  0.42045  1
 Se  Se2  1  0.25744  -0.03795  0.91288  1
