CIF file written using JARVIS-Tools package.
data_HC2
_symmetry_space_group_name_H-M  'Pm'
_cell_length_a       2.85098
_cell_length_b       1.55555
_cell_length_c       3.97497
_cell_angle_alpha    90
_cell_angle_beta     92.0316
_cell_angle_gamma    90

_symmetry_Int_Tables_number  6
_chemical_formula_structural  HC2
_chemical_formula_sum  HC2
_cell_volume  17.617273424314956
_cell_formula_units_Z  1
loop_
  _symmetry_equiv_pos_site_id
 _symmetry_equiv_pos_as_xyz
 1  'x, y, z'
loop_
 _atom_site_type_symbol
 _atom_site_label
 _atom_site_symmetry_multiplicity
 _atom_site_fract_x
 _atom_site_fract_y
 _atom_site_fract_z
 _atom_site_fract_occupancy
 C  C1  1  -0.14140  0.00000  -0.57049  1
 C  C2  1  -0.05640  0.00000  0.05623  1
 H  H1  1  0.59780  0.00000  -0.08574  1
