CIF file written using JARVIS-Tools package.
data_H2C
_symmetry_space_group_name_H-M  'Amm2'
_cell_length_a       3.28247
_cell_length_b       1.78232
_cell_length_c       3.28241
_cell_angle_alpha    90.0001
_cell_angle_beta     90.9639
_cell_angle_gamma    90.0004

_symmetry_Int_Tables_number  38
_chemical_formula_structural  H2C
_chemical_formula_sum  H2C
_cell_volume  19.200616384959897
_cell_formula_units_Z  1
loop_
  _symmetry_equiv_pos_site_id
 _symmetry_equiv_pos_as_xyz
 1  'x, y, z'
loop_
 _atom_site_type_symbol
 _atom_site_label
 _atom_site_symmetry_multiplicity
 _atom_site_fract_x
 _atom_site_fract_y
 _atom_site_fract_z
 _atom_site_fract_occupancy
 C  C1  1  -0.05677  0.71402  0.28856  1
 H  H1  1  0.00778  0.71402  0.61456  1
 H  H2  1  0.61730  0.71402  0.22363  1
