CIF file written using JARVIS-Tools package.
data_AuSe2
_symmetry_space_group_name_H-M  'C2/m'
_cell_length_a       4.06907
_cell_length_b       3.88412
_cell_length_c       4.87499
_cell_angle_alpha    90.0001
_cell_angle_beta     92.2253
_cell_angle_gamma    118.508

_symmetry_Int_Tables_number  12
_chemical_formula_structural  AuSe2
_chemical_formula_sum  AuSe2
_cell_volume  67.64039893237869
_cell_formula_units_Z  1
loop_
  _symmetry_equiv_pos_site_id
 _symmetry_equiv_pos_as_xyz
 1  'x, y, z'
loop_
 _atom_site_type_symbol
 _atom_site_label
 _atom_site_symmetry_multiplicity
 _atom_site_fract_x
 _atom_site_fract_y
 _atom_site_fract_z
 _atom_site_fract_occupancy
 Au  Au1  1  0.00000  0.33333  0.16667  1
 Se  Se1  1  0.74666  0.70666  0.46649  1
 Se  Se2  1  0.25334  -0.03999  0.86685  1
