CIF file written using JARVIS-Tools package.
data_BaSe2
_symmetry_space_group_name_H-M  'C2/m'
_cell_length_a       6.24805
_cell_length_b       4.48566
_cell_length_c       4.45294
_cell_angle_alpha    90
_cell_angle_beta     120.589
_cell_angle_gamma    111.037

_symmetry_Int_Tables_number  12
_chemical_formula_structural  BaSe2
_chemical_formula_sum  BaSe2
_cell_volume  97.64780967054435
_cell_formula_units_Z  1
loop_
  _symmetry_equiv_pos_site_id
 _symmetry_equiv_pos_as_xyz
 1  'x, y, z'
loop_
 _atom_site_type_symbol
 _atom_site_label
 _atom_site_symmetry_multiplicity
 _atom_site_fract_x
 _atom_site_fract_y
 _atom_site_fract_z
 _atom_site_fract_occupancy
 Ba  Ba1  1  -0.00000  0.33334  0.16667  1
 Se  Se1  1  0.74792  0.70729  0.45767  1
 Se  Se2  1  0.25208  -0.04063  0.87566  1
