CIF file written using JARVIS-Tools package.
data_ArSe2
_symmetry_space_group_name_H-M  'C2/m'
_cell_length_a       4.42458
_cell_length_b       3.62599
_cell_length_c       6.90557
_cell_angle_alpha    90
_cell_angle_beta     101.67
_cell_angle_gamma    114.189

_symmetry_Int_Tables_number  12
_chemical_formula_structural  ArSe2
_chemical_formula_sum  ArSe2
_cell_volume  98.54591967995711
_cell_formula_units_Z  1
loop_
  _symmetry_equiv_pos_site_id
 _symmetry_equiv_pos_as_xyz
 1  'x, y, z'
loop_
 _atom_site_type_symbol
 _atom_site_label
 _atom_site_symmetry_multiplicity
 _atom_site_fract_x
 _atom_site_fract_y
 _atom_site_fract_z
 _atom_site_fract_occupancy
 Ar  Ar1  1  -0.00000  0.33327  0.16667  1
 Se  Se1  1  0.71943  0.69308  0.59073  1
 Se  Se2  1  0.28057  -0.02635  0.74260  1
