CIF file written using JARVIS-Tools package.
data_LiH2N
_symmetry_space_group_name_H-M  'Pna2_1'
_cell_length_a       3.1655
_cell_length_b       5.731
_cell_length_c       6.85209
_cell_angle_alpha    90
_cell_angle_beta     90
_cell_angle_gamma    90

_symmetry_Int_Tables_number  33
_chemical_formula_structural  LiH2N
_chemical_formula_sum  Li4H8N4
_cell_volume  124.30694879737717
_cell_formula_units_Z  4
loop_
  _symmetry_equiv_pos_site_id
 _symmetry_equiv_pos_as_xyz
 1  'x, y, z'
loop_
 _atom_site_type_symbol
 _atom_site_label
 _atom_site_symmetry_multiplicity
 _atom_site_fract_x
 _atom_site_fract_y
 _atom_site_fract_z
 _atom_site_fract_occupancy
 H  H1  1  0.71513  0.68077  0.76084  1
 H  H2  1  0.28487  0.18077  0.23916  1
 H  H3  1  0.21513  0.18077  0.73916  1
 H  H4  1  0.78487  0.68077  0.26084  1
 H  H5  1  0.90291  0.06184  0.35538  1
 H  H6  1  0.09709  0.56184  0.64462  1
 H  H7  1  0.40291  0.56184  0.14462  1
 H  H8  1  0.59709  0.06184  0.85538  1
 Li  Li1  1  0.83414  0.36043  0.96114  1
 Li  Li2  1  0.16586  0.86043  0.03886  1
 Li  Li3  1  0.33414  0.86043  0.53886  1
 Li  Li4  1  0.66586  0.36043  0.46114  1
 N  N1  1  0.81513  0.64695  0.62056  1
 N  N2  1  0.18487  0.14695  0.37944  1
 N  N3  1  0.31513  0.14695  0.87944  1
 N  N4  1  0.68487  0.64695  0.12056  1
