CIF file written using JARVIS-Tools package.
data_BiSe2
_symmetry_space_group_name_H-M  'C2/m'
_cell_length_a       4.22125
_cell_length_b       4.21297
_cell_length_c       5.6094
_cell_angle_alpha    90
_cell_angle_beta     97.3623
_cell_angle_gamma    119.935

_symmetry_Int_Tables_number  12
_chemical_formula_structural  BiSe2
_chemical_formula_sum  BiSe2
_cell_volume  85.49855225178436
_cell_formula_units_Z  1
loop_
  _symmetry_equiv_pos_site_id
 _symmetry_equiv_pos_as_xyz
 1  'x, y, z'
loop_
 _atom_site_type_symbol
 _atom_site_label
 _atom_site_symmetry_multiplicity
 _atom_site_fract_x
 _atom_site_fract_y
 _atom_site_fract_z
 _atom_site_fract_occupancy
 Bi  Bi1  1  0.00000  0.33329  0.16667  1
 Se  Se1  1  0.72410  0.69540  0.47432  1
 Se  Se2  1  0.27590  -0.02869  0.85902  1
