CIF file written using JARVIS-Tools package.
data_PrSm3
_symmetry_space_group_name_H-M  'P-3m1'
_cell_length_a       3.63494
_cell_length_b       3.63494
_cell_length_c       11.683
_cell_angle_alpha    90
_cell_angle_beta     90
_cell_angle_gamma    120

_symmetry_Int_Tables_number  164
_chemical_formula_structural  PrSm3
_chemical_formula_sum  PrSm3
_cell_volume  133.684621255311
_cell_formula_units_Z  1
loop_
  _symmetry_equiv_pos_site_id
 _symmetry_equiv_pos_as_xyz
 1  'x, y, z'
loop_
 _atom_site_type_symbol
 _atom_site_label
 _atom_site_symmetry_multiplicity
 _atom_site_fract_x
 _atom_site_fract_y
 _atom_site_fract_z
 _atom_site_fract_occupancy
 Pr  Pr1  1  0.00000  0.00000  0.00000  1
 Sm  Sm1  1  0.00000  0.00000  0.50000  1
 Sm  Sm2  1  0.33333  0.66667  0.25248  1
 Sm  Sm3  1  0.66667  0.33333  0.74752  1
