CIF file written using JARVIS-Tools package.
data_Se2Br
_symmetry_space_group_name_H-M  'C2/m'
_cell_length_a       4.03776
_cell_length_b       4.2365
_cell_length_c       5.51044
_cell_angle_alpha    90
_cell_angle_beta     91.0174
_cell_angle_gamma    121.642

_symmetry_Int_Tables_number  12
_chemical_formula_structural  Se2Br
_chemical_formula_sum  Se2Br
_cell_volume  80.2316285364153
_cell_formula_units_Z  1
loop_
  _symmetry_equiv_pos_site_id
 _symmetry_equiv_pos_as_xyz
 1  'x, y, z'
loop_
 _atom_site_type_symbol
 _atom_site_label
 _atom_site_symmetry_multiplicity
 _atom_site_fract_x
 _atom_site_fract_y
 _atom_site_fract_z
 _atom_site_fract_occupancy
 Br  Br1  1  0.00000  0.33333  0.16667  1
 Se  Se1  1  0.71975  0.69321  0.54660  1
 Se  Se2  1  0.28025  -0.02654  0.78674  1
