CIF file written using JARVIS-Tools package.
data_CSe2
_symmetry_space_group_name_H-M  'C2/m'
_cell_length_a       4.14103
_cell_length_b       4.2939
_cell_length_c       5.83983
_cell_angle_alpha    90
_cell_angle_beta     82.6379
_cell_angle_gamma    121.229

_symmetry_Int_Tables_number  12
_chemical_formula_structural  CSe2
_chemical_formula_sum  CSe2
_cell_volume  87.7904897963923
_cell_formula_units_Z  1
loop_
  _symmetry_equiv_pos_site_id
 _symmetry_equiv_pos_as_xyz
 1  'x, y, z'
loop_
 _atom_site_type_symbol
 _atom_site_label
 _atom_site_symmetry_multiplicity
 _atom_site_fract_x
 _atom_site_fract_y
 _atom_site_fract_z
 _atom_site_fract_occupancy
 C  C1  1  -0.00000  0.00004  0.16667  1
 Se  Se1  1  0.69998  0.84997  0.42488  1
 Se  Se2  1  0.30002  0.14999  0.90846  1
