CIF file written using JARVIS-Tools package.
data_Na2In2GeS6
_symmetry_space_group_name_H-M  'Cc'
_cell_length_a       7.27597
_cell_length_b       7.27597
_cell_length_c       12.4054
_cell_angle_alpha    73.802
_cell_angle_beta     73.802
_cell_angle_gamma    64.4755

_symmetry_Int_Tables_number  9
_chemical_formula_structural  Na2In2GeS6
_chemical_formula_sum  Na4In4Ge2S2
_cell_volume  559.4878633580345
_cell_formula_units_Z  2
loop_
  _symmetry_equiv_pos_site_id
 _symmetry_equiv_pos_as_xyz
 1  'x, y, z'
loop_
 _atom_site_type_symbol
 _atom_site_label
 _atom_site_symmetry_multiplicity
 _atom_site_fract_x
 _atom_site_fract_y
 _atom_site_fract_z
 _atom_site_fract_occupancy
 Ge  Ge1  1  0.06481  0.51490  0.75016  1
 Ge  Ge2  1  0.51490  0.06481  0.25016  1
 In  In1  1  0.61810  0.45480  0.69129  1
 In  In2  1  0.45480  0.61810  0.19129  1
 In  In3  1  0.28337  0.41776  0.99761  1
 In  In4  1  0.41776  0.28337  0.49761  1
 Na  Na1  1  0.91042  0.52716  0.33791  1
 Na  Na2  1  0.52716  0.91042  0.83791  1
 Na  Na3  1  0.07759  0.92223  0.50323  1
 Na  Na4  1  0.92223  0.07759  0.00323  1
 S  S1  1  0.95632  0.47180  0.93912  1
 S  S2  1  0.29245  0.74355  0.02012  1
 S  S3  1  0.61181  0.21476  0.87899  1
 S  S4  1  0.21476  0.61181  0.37899  1
 S  S5  1  0.74355  0.29245  0.52012  1
 S  S6  1  0.70599  0.79064  0.16217  1
 S  S7  1  0.21774  0.20648  0.69640  1
 S  S8  1  0.20648  0.21774  0.19640  1
 S  S9  1  0.79064  0.70599  0.66217  1
 S  S10  1  0.24826  0.71477  0.70315  1
 S  S11  1  0.71477  0.24826  0.20315  1
 S  S12  1  0.47180  0.95632  0.43912  1
