CIF file written using JARVIS-Tools package.
data_BeSe2
_symmetry_space_group_name_H-M  'C2/m'
_cell_length_a       3.75262
_cell_length_b       3.61506
_cell_length_c       5.26295
_cell_angle_alpha    90
_cell_angle_beta     109.687
_cell_angle_gamma    118.794

_symmetry_Int_Tables_number  12
_chemical_formula_structural  BeSe2
_chemical_formula_sum  BeSe2
_cell_volume  57.761092404985234
_cell_formula_units_Z  1
loop_
  _symmetry_equiv_pos_site_id
 _symmetry_equiv_pos_as_xyz
 1  'x, y, z'
loop_
 _atom_site_type_symbol
 _atom_site_label
 _atom_site_symmetry_multiplicity
 _atom_site_fract_x
 _atom_site_fract_y
 _atom_site_fract_z
 _atom_site_fract_occupancy
 Be  Be1  1  -0.00000  0.33336  0.16667  1
 Se  Se1  1  0.79888  0.73276  0.41134  1
 Se  Se2  1  0.20112  -0.06612  0.92199  1
