CIF file written using JARVIS-Tools package.
data_CaSe2
_symmetry_space_group_name_H-M  'C2/m'
_cell_length_a       4.68668
_cell_length_b       4.38315
_cell_length_c       5.6751
_cell_angle_alpha    90
_cell_angle_beta     114.205
_cell_angle_gamma    117.88

_symmetry_Int_Tables_number  12
_chemical_formula_structural  CaSe2
_chemical_formula_sum  CaSe2
_cell_volume  91.29365087282912
_cell_formula_units_Z  1
loop_
  _symmetry_equiv_pos_site_id
 _symmetry_equiv_pos_as_xyz
 1  'x, y, z'
loop_
 _atom_site_type_symbol
 _atom_site_label
 _atom_site_symmetry_multiplicity
 _atom_site_fract_x
 _atom_site_fract_y
 _atom_site_fract_z
 _atom_site_fract_occupancy
 Ca  Ca1  1  -0.00000  0.33335  0.16667  1
 Se  Se1  1  0.80472  0.73568  0.42822  1
 Se  Se2  1  0.19528  -0.06904  0.90511  1
