CIF file written using JARVIS-Tools package.
data_Se2Cl
_symmetry_space_group_name_H-M  'C2/m'
_cell_length_a       3.98469
_cell_length_b       4.16536
_cell_length_c       5.25424
_cell_angle_alpha    90.0001
_cell_angle_beta     91.8518
_cell_angle_gamma    121.512

_symmetry_Int_Tables_number  12
_chemical_formula_structural  Se2Cl
_chemical_formula_sum  Se2Cl
_cell_volume  74.29471702968566
_cell_formula_units_Z  1
loop_
  _symmetry_equiv_pos_site_id
 _symmetry_equiv_pos_as_xyz
 1  'x, y, z'
loop_
 _atom_site_type_symbol
 _atom_site_label
 _atom_site_symmetry_multiplicity
 _atom_site_fract_x
 _atom_site_fract_y
 _atom_site_fract_z
 _atom_site_fract_occupancy
 Cl  Cl1  1  0.00000  0.33336  0.16667  1
 Se  Se1  1  0.71390  0.69027  0.54136  1
 Se  Se2  1  0.28610  -0.02363  0.79198  1
