CIF file written using JARVIS-Tools package.
data_CdSe2
_symmetry_space_group_name_H-M  'C2/m'
_cell_length_a       4.45755
_cell_length_b       4.0758
_cell_length_c       5.45079
_cell_angle_alpha    90
_cell_angle_beta     109.945
_cell_angle_gamma    117.205

_symmetry_Int_Tables_number  12
_chemical_formula_structural  CdSe2
_chemical_formula_sum  CdSe2
_cell_volume  81.33916928721264
_cell_formula_units_Z  1
loop_
  _symmetry_equiv_pos_site_id
 _symmetry_equiv_pos_as_xyz
 1  'x, y, z'
loop_
 _atom_site_type_symbol
 _atom_site_label
 _atom_site_symmetry_multiplicity
 _atom_site_fract_x
 _atom_site_fract_y
 _atom_site_fract_z
 _atom_site_fract_occupancy
 Cd  Cd1  1  0.00000  0.33336  0.16667  1
 Se  Se1  1  0.78980  0.72822  0.43427  1
 Se  Se2  1  0.21020  -0.06158  0.89906  1
