CIF file written using JARVIS-Tools package.
data_HC
_symmetry_space_group_name_H-M  'P-1'
_cell_length_a       4.23113
_cell_length_b       3.11465
_cell_length_c       4.6108
_cell_angle_alpha    120.797
_cell_angle_beta     66.9411
_cell_angle_gamma    144.763

_symmetry_Int_Tables_number  2
_chemical_formula_structural  HC
_chemical_formula_sum  H2C2
_cell_volume  30.071548552753743
_cell_formula_units_Z  2
loop_
  _symmetry_equiv_pos_site_id
 _symmetry_equiv_pos_as_xyz
 1  'x, y, z'
loop_
 _atom_site_type_symbol
 _atom_site_label
 _atom_site_symmetry_multiplicity
 _atom_site_fract_x
 _atom_site_fract_y
 _atom_site_fract_z
 _atom_site_fract_occupancy
 C  C1  1  0.50567  0.05301  0.32288  1
 C  C2  1  0.00654  0.59673  0.47630  1
 H  H1  1  0.00714  -0.32807  0.73522  1
 H  H2  1  0.50501  -0.02227  0.06396  1
