CIF file written using JARVIS-Tools package.
data_CrSe2
_symmetry_space_group_name_H-M  'C2/m'
_cell_length_a       3.52298
_cell_length_b       3.51018
_cell_length_c       5.7023
_cell_angle_alpha    90
_cell_angle_beta     90.208
_cell_angle_gamma    119.88

_symmetry_Int_Tables_number  12
_chemical_formula_structural  CrSe2
_chemical_formula_sum  CrSe2
_cell_volume  61.14222844776682
_cell_formula_units_Z  1
loop_
  _symmetry_equiv_pos_site_id
 _symmetry_equiv_pos_as_xyz
 1  'x, y, z'
loop_
 _atom_site_type_symbol
 _atom_site_label
 _atom_site_symmetry_multiplicity
 _atom_site_fract_x
 _atom_site_fract_y
 _atom_site_fract_z
 _atom_site_fract_occupancy
 Cr  Cr1  1  0.00000  0.33335  0.16667  1
 Se  Se1  1  0.66698  0.66681  0.42013  1
 Se  Se2  1  0.33302  -0.00016  0.91320  1
