CIF file written using JARVIS-Tools package.
data_CoSe2
_symmetry_space_group_name_H-M  'P-3m1'
_cell_length_a       3.49517
_cell_length_b       3.49264
_cell_length_c       5.18029
_cell_angle_alpha    90.0001
_cell_angle_beta     90.1712
_cell_angle_gamma    119.976

_symmetry_Int_Tables_number  164
_chemical_formula_structural  CoSe2
_chemical_formula_sum  CoSe2
_cell_volume  54.778272027574914
_cell_formula_units_Z  1
loop_
  _symmetry_equiv_pos_site_id
 _symmetry_equiv_pos_as_xyz
 1  'x, y, z'
loop_
 _atom_site_type_symbol
 _atom_site_label
 _atom_site_symmetry_multiplicity
 _atom_site_fract_x
 _atom_site_fract_y
 _atom_site_fract_z
 _atom_site_fract_occupancy
 Co  Co1  1  -0.00000  0.33335  0.16667  1
 Se  Se1  1  0.66782  0.66723  0.41119  1
 Se  Se2  1  0.33218  -0.00058  0.92215  1
