CIF file written using JARVIS-Tools package.
data_DySe2
_symmetry_space_group_name_H-M  'C2/m'
_cell_length_a       4.26164
_cell_length_b       4.13546
_cell_length_c       5.94774
_cell_angle_alpha    90
_cell_angle_beta     105.117
_cell_angle_gamma    119.025

_symmetry_Int_Tables_number  12
_chemical_formula_structural  DySe2
_chemical_formula_sum  DySe2
_cell_volume  87.48543945937377
_cell_formula_units_Z  1
loop_
  _symmetry_equiv_pos_site_id
 _symmetry_equiv_pos_as_xyz
 1  'x, y, z'
loop_
 _atom_site_type_symbol
 _atom_site_label
 _atom_site_symmetry_multiplicity
 _atom_site_fract_x
 _atom_site_fract_y
 _atom_site_fract_z
 _atom_site_fract_occupancy
 Dy  Dy1  1  -0.00000  0.33335  0.16667  1
 Se  Se1  1  0.77344  0.72004  0.42851  1
 Se  Se2  1  0.22656  -0.05339  0.90482  1
