CIF file written using JARVIS-Tools package.
data_ScFe2
_symmetry_space_group_name_H-M  'P6_3/mmc'
_cell_length_a       4.8758
_cell_length_b       4.8758
_cell_length_c       15.9504
_cell_angle_alpha    90
_cell_angle_beta     90
_cell_angle_gamma    120

_symmetry_Int_Tables_number  194
_chemical_formula_structural  ScFe2
_chemical_formula_sum  Sc8Fe6
_cell_volume  328.3923327621564
_cell_formula_units_Z  8
loop_
  _symmetry_equiv_pos_site_id
 _symmetry_equiv_pos_as_xyz
 1  'x, y, z'
loop_
 _atom_site_type_symbol
 _atom_site_label
 _atom_site_symmetry_multiplicity
 _atom_site_fract_x
 _atom_site_fract_y
 _atom_site_fract_z
 _atom_site_fract_occupancy
 Fe  Fe1  1  0.16456  0.83544  0.25000  1
 Fe  Fe2  1  0.33333  0.66667  0.37493  1
 Fe  Fe3  1  0.66667  0.33333  0.62507  1
 Fe  Fe4  1  0.66667  0.33333  0.87493  1
 Fe  Fe5  1  0.83544  0.67088  0.75000  1
 Fe  Fe6  1  0.50000  0.50000  0.50000  1
 Fe  Fe7  1  0.50000  0.00000  0.50000  1
 Fe  Fe8  1  0.33333  0.66667  0.12507  1
 Fe  Fe9  1  0.50000  0.50000  0.00000  1
 Fe  Fe10  1  0.50000  0.00000  0.00000  1
 Fe  Fe11  1  -0.00000  0.50000  0.00000  1
 Fe  Fe12  1  0.32912  0.16456  0.75000  1
 Fe  Fe13  1  0.16456  0.32912  0.25000  1
 Fe  Fe14  1  0.67088  0.83544  0.25000  1
 Fe  Fe15  1  0.83544  0.16456  0.75000  1
 Fe  Fe16  1  -0.00000  0.50000  0.50000  1
 Sc  Sc1  1  0.33333  0.66667  0.84400  1
 Sc  Sc2  1  0.66667  0.33333  0.15600  1
 Sc  Sc3  1  0.66667  0.33333  0.34400  1
 Sc  Sc4  1  0.33333  0.66667  0.65600  1
 Sc  Sc5  1  0.00000  0.00000  0.09343  1
 Sc  Sc6  1  0.00000  0.00000  0.90657  1
 Sc  Sc7  1  0.00000  0.00000  0.59343  1
 Sc  Sc8  1  0.00000  0.00000  0.40657  1
