CIF file written using JARVIS-Tools package.
data_CuSe2
_symmetry_space_group_name_H-M  'C2/m'
_cell_length_a       4.03014
_cell_length_b       3.65392
_cell_length_c       4.81188
_cell_angle_alpha    90
_cell_angle_beta     98.6762
_cell_angle_gamma    116.957

_symmetry_Int_Tables_number  12
_chemical_formula_structural  CuSe2
_chemical_formula_sum  CuSe2
_cell_volume  62.248737031451626
_cell_formula_units_Z  1
loop_
  _symmetry_equiv_pos_site_id
 _symmetry_equiv_pos_as_xyz
 1  'x, y, z'
loop_
 _atom_site_type_symbol
 _atom_site_label
 _atom_site_symmetry_multiplicity
 _atom_site_fract_x
 _atom_site_fract_y
 _atom_site_fract_z
 _atom_site_fract_occupancy
 Cu  Cu1  1  0.00000  0.33327  0.16667  1
 Se  Se1  1  0.77742  0.72207  0.44265  1
 Se  Se2  1  0.22258  -0.05534  0.89068  1
