CIF file written using JARVIS-Tools package.
data_Se2F
_symmetry_space_group_name_H-M  'C2/m'
_cell_length_a       3.86723
_cell_length_b       4.01493
_cell_length_c       4.28531
_cell_angle_alpha    90
_cell_angle_beta     93.9302
_cell_angle_gamma    121.272

_symmetry_Int_Tables_number  12
_chemical_formula_structural  Se2F
_chemical_formula_sum  Se2F
_cell_volume  56.68657711599621
_cell_formula_units_Z  1
loop_
  _symmetry_equiv_pos_site_id
 _symmetry_equiv_pos_as_xyz
 1  'x, y, z'
loop_
 _atom_site_type_symbol
 _atom_site_label
 _atom_site_symmetry_multiplicity
 _atom_site_fract_x
 _atom_site_fract_y
 _atom_site_fract_z
 _atom_site_fract_occupancy
 F  F1  1  0.00000  0.33336  0.16667  1
 Se  Se1  1  0.69449  0.68056  0.51416  1
 Se  Se2  1  0.30551  -0.01393  0.81917  1
