CIF file written using JARVIS-Tools package.
data_Dy8Ga3Co
_symmetry_space_group_name_H-M  'P6_3mc'
_cell_length_a       9.94167
_cell_length_b       9.94167
_cell_length_c       6.87569
_cell_angle_alpha    90
_cell_angle_beta     90
_cell_angle_gamma    120

_symmetry_Int_Tables_number  186
_chemical_formula_structural  Dy8Ga3Co
_chemical_formula_sum  Dy6Ga6Co2
_cell_volume  588.5255669637389
_cell_formula_units_Z  2
loop_
  _symmetry_equiv_pos_site_id
 _symmetry_equiv_pos_as_xyz
 1  'x, y, z'
loop_
 _atom_site_type_symbol
 _atom_site_label
 _atom_site_symmetry_multiplicity
 _atom_site_fract_x
 _atom_site_fract_y
 _atom_site_fract_z
 _atom_site_fract_occupancy
 Co  Co1  1  0.66667  0.33333  0.94316  1
 Co  Co2  1  0.33333  0.66667  0.44316  1
 Dy  Dy1  1  0.66667  0.33333  0.32719  1
 Dy  Dy2  1  0.65506  0.82753  0.51149  1
 Dy  Dy3  1  0.17247  0.34494  0.51149  1
 Dy  Dy4  1  0.82753  0.17247  0.01149  1
 Dy  Dy5  1  0.82753  0.65506  0.01149  1
 Dy  Dy6  1  0.33333  0.66667  0.82719  1
 Dy  Dy7  1  0.17247  0.82753  0.51149  1
 Dy  Dy8  1  0.46317  0.53683  0.20781  1
 Dy  Dy9  1  0.07365  0.53683  0.20781  1
 Dy  Dy10  1  0.46317  0.92635  0.20781  1
 Dy  Dy11  1  0.92635  0.46317  0.70781  1
 Dy  Dy12  1  0.53683  0.07365  0.70781  1
 Dy  Dy13  1  0.00000  0.00000  0.23226  1
 Dy  Dy14  1  0.00000  0.00000  0.73226  1
 Dy  Dy15  1  0.53683  0.46317  0.70781  1
 Dy  Dy16  1  0.34494  0.17247  0.01149  1
 Ga  Ga1  1  0.16379  0.83621  0.95896  1
 Ga  Ga2  1  0.67243  0.83621  0.95896  1
 Ga  Ga3  1  0.16379  0.32757  0.95896  1
 Ga  Ga4  1  0.83621  0.16379  0.45896  1
 Ga  Ga5  1  0.32757  0.16379  0.45896  1
 Ga  Ga6  1  0.83621  0.67243  0.45896  1
