CIF file written using JARVIS-Tools package.
data_NdHO
_symmetry_space_group_name_H-M  'P4/nmm'
_cell_length_a       7.90182
_cell_length_b       7.90182
_cell_length_c       5.5749
_cell_angle_alpha    90
_cell_angle_beta     90
_cell_angle_gamma    90

_symmetry_Int_Tables_number  129
_chemical_formula_structural  NdHO
_chemical_formula_sum  Nd8H8O8
_cell_volume  348.0894186738696
_cell_formula_units_Z  8
loop_
  _symmetry_equiv_pos_site_id
 _symmetry_equiv_pos_as_xyz
 1  'x, y, z'
loop_
 _atom_site_type_symbol
 _atom_site_label
 _atom_site_symmetry_multiplicity
 _atom_site_fract_x
 _atom_site_fract_y
 _atom_site_fract_z
 _atom_site_fract_occupancy
 H  H1  1  0.00000  0.27054  0.24702  1
 H  H2  1  0.50000  0.22946  0.75298  1
 H  H3  1  0.50000  0.77054  0.75298  1
 H  H4  1  0.72946  0.00000  0.75298  1
 H  H5  1  0.27054  0.00000  0.75298  1
 H  H6  1  0.00000  0.72946  0.24702  1
 H  H7  1  0.77054  0.50000  0.24702  1
 H  H8  1  0.22946  0.50000  0.24702  1
 Nd  Nd1  1  0.00000  0.00000  0.00000  1
 Nd  Nd2  1  0.75000  0.75000  0.50000  1
 Nd  Nd3  1  0.25000  0.25000  0.50000  1
 Nd  Nd4  1  0.25000  0.75000  0.50000  1
 Nd  Nd5  1  0.00000  0.50000  0.94798  1
 Nd  Nd6  1  0.50000  0.00000  0.05202  1
 Nd  Nd7  1  0.50000  0.50000  0.00000  1
 Nd  Nd8  1  0.75000  0.25000  0.50000  1
 O  O1  1  0.73530  0.50000  0.74391  1
 O  O2  1  0.50000  0.26470  0.25609  1
 O  O3  1  0.50000  0.73530  0.25609  1
 O  O4  1  0.76470  0.00000  0.25609  1
 O  O5  1  0.23530  0.00000  0.25609  1
 O  O6  1  0.00000  0.23530  0.74391  1
 O  O7  1  0.00000  0.76470  0.74391  1
 O  O8  1  0.26470  0.50000  0.74391  1
