CIF file written using JARVIS-Tools package.
data_GaSe2
_symmetry_space_group_name_H-M  'C2/m'
_cell_length_a       3.89096
_cell_length_b       3.74144
_cell_length_c       5.29911
_cell_angle_alpha    90
_cell_angle_beta     98.326
_cell_angle_gamma    118.737

_symmetry_Int_Tables_number  12
_chemical_formula_structural  GaSe2
_chemical_formula_sum  GaSe2
_cell_volume  66.71368567338162
_cell_formula_units_Z  1
loop_
  _symmetry_equiv_pos_site_id
 _symmetry_equiv_pos_as_xyz
 1  'x, y, z'
loop_
 _atom_site_type_symbol
 _atom_site_label
 _atom_site_symmetry_multiplicity
 _atom_site_fract_x
 _atom_site_fract_y
 _atom_site_fract_z
 _atom_site_fract_occupancy
 Ga  Ga1  1  0.00000  0.33332  0.16667  1
 Se  Se1  1  0.72633  0.69651  0.43847  1
 Se  Se2  1  0.27367  -0.02982  0.89487  1
