CIF file written using JARVIS-Tools package.
data_Sm3N
_symmetry_space_group_name_H-M  'P-3m1'
_cell_length_a       3.55448
_cell_length_b       3.55448
_cell_length_c       9.20957
_cell_angle_alpha    90
_cell_angle_beta     90
_cell_angle_gamma    120

_symmetry_Int_Tables_number  164
_chemical_formula_structural  Sm3N
_chemical_formula_sum  Sm3N
_cell_volume  100.76765302457517
_cell_formula_units_Z  1
loop_
  _symmetry_equiv_pos_site_id
 _symmetry_equiv_pos_as_xyz
 1  'x, y, z'
loop_
 _atom_site_type_symbol
 _atom_site_label
 _atom_site_symmetry_multiplicity
 _atom_site_fract_x
 _atom_site_fract_y
 _atom_site_fract_z
 _atom_site_fract_occupancy
 N  N1  1  0.00000  0.00000  0.00000  1
 Sm  Sm1  1  0.00000  0.00000  0.50000  1
 Sm  Sm2  1  0.33333  0.66667  0.15110  1
 Sm  Sm3  1  0.66667  0.33333  0.84890  1
