CIF file written using JARVIS-Tools package.
data_NaNb6O16
_symmetry_space_group_name_H-M  'Amm2'
_cell_length_a       9.13071
_cell_length_b       9.13071
_cell_length_c       3.92163
_cell_angle_alpha    90
_cell_angle_beta     90
_cell_angle_gamma    109.874

_symmetry_Int_Tables_number  38
_chemical_formula_structural  NaNb6O16
_chemical_formula_sum  NaNb6O6
_cell_volume  307.47278238351674
_cell_formula_units_Z  1
loop_
  _symmetry_equiv_pos_site_id
 _symmetry_equiv_pos_as_xyz
 1  'x, y, z'
loop_
 _atom_site_type_symbol
 _atom_site_label
 _atom_site_symmetry_multiplicity
 _atom_site_fract_x
 _atom_site_fract_y
 _atom_site_fract_z
 _atom_site_fract_occupancy
 Na  Na1  1  0.40043  0.59957  0.50000  1
 Nb  Nb1  1  0.99787  0.00213  0.00000  1
 Nb  Nb2  1  0.21302  0.78698  0.00000  1
 Nb  Nb3  1  0.37786  0.26165  0.00000  1
 Nb  Nb4  1  0.73835  0.62214  0.00000  1
 Nb  Nb5  1  0.62752  0.00280  0.00000  1
 Nb  Nb6  1  -0.00280  0.37248  0.00000  1
 O  O1  1  0.00141  -0.00141  0.50000  1
 O  O2  1  0.22624  0.77376  0.50000  1
 O  O3  1  0.36465  0.28769  0.50000  1
 O  O4  1  0.71231  0.63535  0.50000  1
 O  O5  1  0.85911  0.14089  0.00000  1
 O  O6  1  0.99343  0.36198  0.50000  1
 O  O7  1  0.63802  0.00657  0.50000  1
 O  O8  1  0.18130  0.55484  0.00000  1
 O  O9  1  0.44516  0.81870  0.00000  1
 O  O10  1  0.23596  0.01208  0.00000  1
 O  O11  1  0.76247  0.85327  0.00000  1
 O  O12  1  0.14673  0.23753  0.00000  1
 O  O13  1  0.53683  0.16916  0.00000  1
 O  O14  1  0.83084  0.46317  0.00000  1
 O  O15  1  0.98792  0.76404  0.00000  1
 O  O16  1  0.51335  0.48665  0.00000  1
