CIF file written using JARVIS-Tools package.
data_IF2
_symmetry_space_group_name_H-M  'P2/m'
_cell_length_a       4.79183
_cell_length_b       3.10986
_cell_length_c       3.75977
_cell_angle_alpha    90
_cell_angle_beta     83.6969
_cell_angle_gamma    90

_symmetry_Int_Tables_number  10
_chemical_formula_structural  IF2
_chemical_formula_sum  IF2
_cell_volume  55.68898809299007
_cell_formula_units_Z  1
loop_
  _symmetry_equiv_pos_site_id
 _symmetry_equiv_pos_as_xyz
 1  'x, y, z'
loop_
 _atom_site_type_symbol
 _atom_site_label
 _atom_site_symmetry_multiplicity
 _atom_site_fract_x
 _atom_site_fract_y
 _atom_site_fract_z
 _atom_site_fract_occupancy
 F  F1  1  -0.21581  0.00000  -0.56403  1
 F  F2  1  0.14914  0.00000  -0.16929  1
 I  I1  1  0.46667  0.00000  0.13332  1
