CIF file written using JARVIS-Tools package.
data_HfSe2
_symmetry_space_group_name_H-M  'P-3m1'
_cell_length_a       3.76208
_cell_length_b       3.76966
_cell_length_c       6.21813
_cell_angle_alpha    90
_cell_angle_beta     89.9662
_cell_angle_gamma    120.067

_symmetry_Int_Tables_number  164
_chemical_formula_structural  HfSe2
_chemical_formula_sum  HfSe2
_cell_volume  76.31820540810986
_cell_formula_units_Z  1
loop_
  _symmetry_equiv_pos_site_id
 _symmetry_equiv_pos_as_xyz
 1  'x, y, z'
loop_
 _atom_site_type_symbol
 _atom_site_label
 _atom_site_symmetry_multiplicity
 _atom_site_fract_x
 _atom_site_fract_y
 _atom_site_fract_z
 _atom_site_fract_occupancy
 Hf  Hf1  1  0.00000  0.33334  0.16667  1
 Se  Se1  1  0.66662  0.66664  0.42026  1
 Se  Se2  1  0.33338  0.00002  0.91307  1
