CIF file written using JARVIS-Tools package.
data_HSe2
_symmetry_space_group_name_H-M  'C2/m'
_cell_length_a       4.5045
_cell_length_b       3.38265
_cell_length_c       4.43751
_cell_angle_alpha    89.9999
_cell_angle_beta     104.713
_cell_angle_gamma    112.054

_symmetry_Int_Tables_number  12
_chemical_formula_structural  HSe2
_chemical_formula_sum  HSe2
_cell_volume  60.26903034658635
_cell_formula_units_Z  1
loop_
  _symmetry_equiv_pos_site_id
 _symmetry_equiv_pos_as_xyz
 1  'x, y, z'
loop_
 _atom_site_type_symbol
 _atom_site_label
 _atom_site_symmetry_multiplicity
 _atom_site_fract_x
 _atom_site_fract_y
 _atom_site_fract_z
 _atom_site_fract_occupancy
 H  H1  1  0.00000  0.00004  0.16667  1
 Se  Se1  1  0.76969  0.88483  0.45255  1
 Se  Se2  1  0.23031  0.11513  0.88079  1
