CIF file written using JARVIS-Tools package.
data_HgBr3
_symmetry_space_group_name_H-M  'C2/m'
_cell_length_a       4.09044
_cell_length_b       6.06184
_cell_length_c       6.04504
_cell_angle_alpha    75.1083
_cell_angle_beta     109.73
_cell_angle_gamma    70.346

_symmetry_Int_Tables_number  12
_chemical_formula_structural  HgBr3
_chemical_formula_sum  HgBr3
_cell_volume  120.70625891111948
_cell_formula_units_Z  1
loop_
  _symmetry_equiv_pos_site_id
 _symmetry_equiv_pos_as_xyz
 1  'x, y, z'
loop_
 _atom_site_type_symbol
 _atom_site_label
 _atom_site_symmetry_multiplicity
 _atom_site_fract_x
 _atom_site_fract_y
 _atom_site_fract_z
 _atom_site_fract_occupancy
 Br  Br1  1  0.31823  0.52265  0.40084  1
 Br  Br2  1  0.31856  0.82718  0.70537  1
 Br  Br3  1  0.31782  0.21829  0.09613  1
 Hg  Hg1  1  -0.18109  0.02203  -0.09855  1
