CIF file written using JARVIS-Tools package.
data_HeSe2
_symmetry_space_group_name_H-M  'C2/m'
_cell_length_a       4.43631
_cell_length_b       3.78598
_cell_length_c       5.02822
_cell_angle_alpha    90.0001
_cell_angle_beta     102.153
_cell_angle_gamma    115.258

_symmetry_Int_Tables_number  12
_chemical_formula_structural  HeSe2
_chemical_formula_sum  HeSe2
_cell_volume  74.28027942856042
_cell_formula_units_Z  1
loop_
  _symmetry_equiv_pos_site_id
 _symmetry_equiv_pos_as_xyz
 1  'x, y, z'
loop_
 _atom_site_type_symbol
 _atom_site_label
 _atom_site_symmetry_multiplicity
 _atom_site_fract_x
 _atom_site_fract_y
 _atom_site_fract_z
 _atom_site_fract_occupancy
 He  He1  1  -0.00000  0.33367  0.16667  1
 Se  Se1  1  0.71441  0.69037  0.56646  1
 Se  Se2  1  0.28559  -0.02404  0.76688  1
