CIF file written using JARVIS-Tools package.
data_InSe2
_symmetry_space_group_name_H-M  'C2/m'
_cell_length_a       4.13187
_cell_length_b       3.98073
_cell_length_c       5.46094
_cell_angle_alpha    90
_cell_angle_beta     98.8511
_cell_angle_gamma    118.797

_symmetry_Int_Tables_number  12
_chemical_formula_structural  InSe2
_chemical_formula_sum  InSe2
_cell_volume  77.48998855370513
_cell_formula_units_Z  1
loop_
  _symmetry_equiv_pos_site_id
 _symmetry_equiv_pos_as_xyz
 1  'x, y, z'
loop_
 _atom_site_type_symbol
 _atom_site_label
 _atom_site_symmetry_multiplicity
 _atom_site_fract_x
 _atom_site_fract_y
 _atom_site_fract_z
 _atom_site_fract_occupancy
 In  In1  1  0.00000  0.33334  0.16667  1
 Se  Se1  1  0.73423  0.70044  0.44771  1
 Se  Se2  1  0.26577  -0.03378  0.88563  1
