CIF file written using JARVIS-Tools package.
data_Se2I
_symmetry_space_group_name_H-M  'C2/m'
_cell_length_a       4.1359
_cell_length_b       4.50384
_cell_length_c       5.76798
_cell_angle_alpha    90
_cell_angle_beta     87.918
_cell_angle_gamma    122.989

_symmetry_Int_Tables_number  12
_chemical_formula_structural  Se2I
_chemical_formula_sum  Se2I
_cell_volume  90.03536759101735
_cell_formula_units_Z  1
loop_
  _symmetry_equiv_pos_site_id
 _symmetry_equiv_pos_as_xyz
 1  'x, y, z'
loop_
 _atom_site_type_symbol
 _atom_site_label
 _atom_site_symmetry_multiplicity
 _atom_site_fract_x
 _atom_site_fract_y
 _atom_site_fract_z
 _atom_site_fract_occupancy
 I  I1  1  0.00000  0.33336  0.16667  1
 Se  Se1  1  0.73576  0.70120  0.55105  1
 Se  Se2  1  0.26424  -0.03456  0.78228  1
