CIF file written using JARVIS-Tools package.
data_Te2H2O3F4
_symmetry_space_group_name_H-M  'Fdd2'
_cell_length_a       11.8722
_cell_length_b       10.6442
_cell_length_c       6.22331
_cell_angle_alpha    85.203
_cell_angle_beta     63.3065
_cell_angle_gamma    31.4904

_symmetry_Int_Tables_number  43
_chemical_formula_structural  Te2H2O3F4
_chemical_formula_sum  Te4H4O6F8
_cell_volume  281.5106121180892
_cell_formula_units_Z  2
loop_
  _symmetry_equiv_pos_site_id
 _symmetry_equiv_pos_as_xyz
 1  'x, y, z'
loop_
 _atom_site_type_symbol
 _atom_site_label
 _atom_site_symmetry_multiplicity
 _atom_site_fract_x
 _atom_site_fract_y
 _atom_site_fract_z
 _atom_site_fract_occupancy
 F  F1  1  0.89089  0.97333  0.03897  1
 F  F2  1  0.27667  0.35911  0.15319  1
 F  F3  1  0.21103  0.15319  0.35911  1
 F  F4  1  0.40203  0.01821  0.68485  1
 F  F5  1  0.89491  0.68485  0.01821  1
 F  F6  1  0.23179  0.84797  0.35509  1
 F  F7  1  0.09681  0.03897  0.97333  1
 F  F8  1  0.56515  0.35509  0.84797  1
 H  H1  1  0.43796  0.76111  0.80679  1
 H  H2  1  0.99413  0.80679  0.76111  1
 H  H3  1  0.48889  0.81204  0.25587  1
 H  H4  1  0.44321  0.25587  0.81204  1
 O  O1  1  0.78711  0.71289  0.71289  1
 O  O2  1  0.04258  0.72312  0.58883  1
 O  O3  1  0.64546  0.58883  0.72312  1
 O  O4  1  0.66117  0.60454  0.20742  1
 O  O5  1  0.52688  0.20742  0.60454  1
 O  O6  1  0.53711  0.46289  0.46289  1
 Te  Te1  1  0.16724  0.43502  0.55776  1
 Te  Te2  1  0.83997  0.55776  0.43502  1
 Te  Te3  1  0.81498  0.08276  0.41003  1
 Te  Te4  1  0.69224  0.41003  0.08276  1
