CIF file written using JARVIS-Tools package.
data_HgSe2
_symmetry_space_group_name_H-M  'C2/m'
_cell_length_a       4.5369
_cell_length_b       4.07261
_cell_length_c       5.29853
_cell_angle_alpha    90
_cell_angle_beta     106.087
_cell_angle_gamma    116.669

_symmetry_Int_Tables_number  12
_chemical_formula_structural  HgSe2
_chemical_formula_sum  HgSe2
_cell_volume  83.1735098712368
_cell_formula_units_Z  1
loop_
  _symmetry_equiv_pos_site_id
 _symmetry_equiv_pos_as_xyz
 1  'x, y, z'
loop_
 _atom_site_type_symbol
 _atom_site_label
 _atom_site_symmetry_multiplicity
 _atom_site_fract_x
 _atom_site_fract_y
 _atom_site_fract_z
 _atom_site_fract_occupancy
 Hg  Hg1  1  0.00000  0.33335  0.16667  1
 Se  Se1  1  0.78224  0.72444  0.45045  1
 Se  Se2  1  0.21776  -0.05780  0.88289  1
