CIF file written using JARVIS-Tools package.
data_HoSe2
_symmetry_space_group_name_H-M  'C2/m'
_cell_length_a       4.24087
_cell_length_b       4.11259
_cell_length_c       5.94356
_cell_angle_alpha    90
_cell_angle_beta     105.08
_cell_angle_gamma    119.004

_symmetry_Int_Tables_number  12
_chemical_formula_structural  HoSe2
_chemical_formula_sum  HoSe2
_cell_volume  86.55598712590881
_cell_formula_units_Z  1
loop_
  _symmetry_equiv_pos_site_id
 _symmetry_equiv_pos_as_xyz
 1  'x, y, z'
loop_
 _atom_site_type_symbol
 _atom_site_label
 _atom_site_symmetry_multiplicity
 _atom_site_fract_x
 _atom_site_fract_y
 _atom_site_fract_z
 _atom_site_fract_occupancy
 Ho  Ho1  1  -0.00000  0.33335  0.16667  1
 Se  Se1  1  0.77340  0.72003  0.42786  1
 Se  Se2  1  0.22660  -0.05337  0.90547  1
