CIF file written using JARVIS-Tools package.
data_Tl4CuTeO6
_symmetry_space_group_name_H-M  'P-1'
_cell_length_a       5.99905
_cell_length_b       8.80278
_cell_length_c       9.24966
_cell_angle_alpha    67.1237
_cell_angle_beta     73.4978
_cell_angle_gamma    79.721

_symmetry_Int_Tables_number  2
_chemical_formula_structural  Tl4CuTeO6
_chemical_formula_sum  Tl8Cu2Te2O2
_cell_volume  430.22109860609237
_cell_formula_units_Z  2
loop_
  _symmetry_equiv_pos_site_id
 _symmetry_equiv_pos_as_xyz
 1  'x, y, z'
loop_
 _atom_site_type_symbol
 _atom_site_label
 _atom_site_symmetry_multiplicity
 _atom_site_fract_x
 _atom_site_fract_y
 _atom_site_fract_z
 _atom_site_fract_occupancy
 Cu  Cu1  1  0.77606  0.44451  0.94428  1
 Cu  Cu2  1  0.22394  0.55549  0.05572  1
 O  O1  1  0.36887  0.74370  0.04654  1
 O  O2  1  0.40255  0.56016  0.83329  1
 O  O3  1  0.06221  0.42539  0.77141  1
 O  O4  1  0.93779  0.57461  0.22859  1
 O  O5  1  0.16287  0.33403  0.07993  1
 O  O6  1  0.83713  0.66597  0.92007  1
 O  O7  1  0.46306  0.65272  0.34759  1
 O  O8  1  0.53694  0.34728  0.65241  1
 O  O9  1  0.72968  0.89177  0.07949  1
 O  O10  1  0.59745  0.43984  0.16671  1
 O  O11  1  0.63113  0.25630  0.95346  1
 O  O12  1  0.27032  0.10823  0.92051  1
 Te  Te1  1  0.34129  0.33166  0.86451  1
 Te  Te2  1  0.65871  0.66834  0.13549  1
 Tl  Tl1  1  0.49071  0.07606  0.23695  1
 Tl  Tl2  1  0.50929  0.92394  0.76305  1
 Tl  Tl3  1  0.72692  0.60993  0.53414  1
 Tl  Tl4  1  0.27308  0.39007  0.46586  1
 Tl  Tl5  1  0.12612  0.74593  0.65459  1
 Tl  Tl6  1  0.87388  0.25407  0.34541  1
 Tl  Tl7  1  0.08004  0.88971  0.20226  1
 Tl  Tl8  1  0.91996  0.11029  0.79774  1
