CIF file written using JARVIS-Tools package.
data_RbIn2S2
_symmetry_space_group_name_H-M  'I4/mmm'
_cell_length_a       7.07206
_cell_length_b       7.07206
_cell_length_c       7.07206
_cell_angle_alpha    137.169
_cell_angle_beta     137.169
_cell_angle_gamma    62.1775

_symmetry_Int_Tables_number  139
_chemical_formula_structural  RbIn2S2
_chemical_formula_sum  RbIn2S2
_cell_volume  161.52632455648987
_cell_formula_units_Z  1
loop_
  _symmetry_equiv_pos_site_id
 _symmetry_equiv_pos_as_xyz
 1  'x, y, z'
loop_
 _atom_site_type_symbol
 _atom_site_label
 _atom_site_symmetry_multiplicity
 _atom_site_fract_x
 _atom_site_fract_y
 _atom_site_fract_z
 _atom_site_fract_occupancy
 In  In1  1  0.75000  0.25000  0.50000  1
 In  In2  1  0.25000  0.75000  0.50000  1
 Rb  Rb1  1  0.00000  0.00000  0.00000  1
 S  S1  1  0.33928  0.33928  -0.00000  1
 S  S2  1  0.66072  0.66072  0.00000  1
