CIF file written using JARVIS-Tools package.
data_Pr3CoGe2
_symmetry_space_group_name_H-M  'Pnma'
_cell_length_a       4.26194
_cell_length_b       11.6001
_cell_length_c       12.0082
_cell_angle_alpha    90
_cell_angle_beta     90
_cell_angle_gamma    90

_symmetry_Int_Tables_number  62
_chemical_formula_structural  Pr3CoGe2
_chemical_formula_sum  Pr2Co4Ge8
_cell_volume  593.6724885691083
_cell_formula_units_Z  4
loop_
  _symmetry_equiv_pos_site_id
 _symmetry_equiv_pos_as_xyz
 1  'x, y, z'
loop_
 _atom_site_type_symbol
 _atom_site_label
 _atom_site_symmetry_multiplicity
 _atom_site_fract_x
 _atom_site_fract_y
 _atom_site_fract_z
 _atom_site_fract_occupancy
 Co  Co1  1  0.25000  0.13465  0.13175  1
 Co  Co2  1  0.25000  0.36535  0.63175  1
 Co  Co3  1  0.75000  0.86535  0.86825  1
 Co  Co4  1  0.75000  0.63465  0.36825  1
 Ge  Ge1  1  0.75000  0.99342  0.69587  1
 Ge  Ge2  1  0.25000  0.49342  0.80413  1
 Ge  Ge3  1  0.75000  0.31456  0.52238  1
 Ge  Ge4  1  0.75000  0.18544  0.02238  1
 Ge  Ge5  1  0.25000  0.68544  0.47762  1
 Ge  Ge6  1  0.25000  0.81456  0.97762  1
 Ge  Ge7  1  0.75000  0.50658  0.19587  1
 Ge  Ge8  1  0.25000  0.00658  0.30413  1
 Pr  Pr1  1  0.25000  0.05487  0.88118  1
 Pr  Pr2  1  0.75000  0.94513  0.11882  1
 Pr  Pr3  1  0.75000  0.55487  0.61882  1
 Pr  Pr4  1  0.25000  0.12765  0.55525  1
 Pr  Pr5  1  0.75000  0.29717  0.77810  1
 Pr  Pr6  1  0.75000  0.87235  0.44475  1
 Pr  Pr7  1  0.75000  0.62765  0.94475  1
 Pr  Pr8  1  0.25000  0.79717  0.72190  1
 Pr  Pr9  1  0.25000  0.70283  0.22190  1
 Pr  Pr10  1  0.75000  0.20283  0.27810  1
 Pr  Pr11  1  0.25000  0.44513  0.38118  1
 Pr  Pr12  1  0.25000  0.37235  0.05525  1
