CIF file written using JARVIS-Tools package.
data_LiSe2
_symmetry_space_group_name_H-M  'C2/m'
_cell_length_a       3.99097
_cell_length_b       4.12082
_cell_length_c       5.30573
_cell_angle_alpha    90
_cell_angle_beta     110.126
_cell_angle_gamma    121.082

_symmetry_Int_Tables_number  12
_chemical_formula_structural  LiSe2
_chemical_formula_sum  LiSe2
_cell_volume  68.43368485408818
_cell_formula_units_Z  1
loop_
  _symmetry_equiv_pos_site_id
 _symmetry_equiv_pos_as_xyz
 1  'x, y, z'
loop_
 _atom_site_type_symbol
 _atom_site_label
 _atom_site_symmetry_multiplicity
 _atom_site_fract_x
 _atom_site_fract_y
 _atom_site_fract_z
 _atom_site_fract_occupancy
 Li  Li1  1  -0.00000  0.33333  0.16667  1
 Se  Se1  1  0.84612  0.75639  0.42800  1
 Se  Se2  1  0.15388  -0.08973  0.90534  1
