CIF file written using JARVIS-Tools package.
data_MnSe2
_symmetry_space_group_name_H-M  'P-3m1'
_cell_length_a       3.52825
_cell_length_b       3.52636
_cell_length_c       5.71563
_cell_angle_alpha    90
_cell_angle_beta     90.0725
_cell_angle_gamma    119.982

_symmetry_Int_Tables_number  164
_chemical_formula_structural  MnSe2
_chemical_formula_sum  MnSe2
_cell_volume  61.59670602130338
_cell_formula_units_Z  1
loop_
  _symmetry_equiv_pos_site_id
 _symmetry_equiv_pos_as_xyz
 1  'x, y, z'
loop_
 _atom_site_type_symbol
 _atom_site_label
 _atom_site_symmetry_multiplicity
 _atom_site_fract_x
 _atom_site_fract_y
 _atom_site_fract_z
 _atom_site_fract_occupancy
 Mn  Mn1  1  0.00000  0.33334  0.16667  1
 Se  Se1  1  0.66669  0.66667  0.41386  1
 Se  Se2  1  0.33331  -0.00002  0.91947  1
