CIF file written using JARVIS-Tools package.
data_Tb3Ga2Ni6
_symmetry_space_group_name_H-M  'Im-3m'
_cell_length_a       7.6825
_cell_length_b       7.68249
_cell_length_c       7.6825
_cell_angle_alpha    109.471
_cell_angle_beta     109.471
_cell_angle_gamma    109.471

_symmetry_Int_Tables_number  229
_chemical_formula_structural  Tb3Ga2Ni6
_chemical_formula_sum  Tb6Ga4Ni2
_cell_volume  349.04795945887014
_cell_formula_units_Z  2
loop_
  _symmetry_equiv_pos_site_id
 _symmetry_equiv_pos_as_xyz
 1  'x, y, z'
loop_
 _atom_site_type_symbol
 _atom_site_label
 _atom_site_symmetry_multiplicity
 _atom_site_fract_x
 _atom_site_fract_y
 _atom_site_fract_z
 _atom_site_fract_occupancy
 Ga  Ga1  1  0.00000  0.00000  0.50000  1
 Ga  Ga2  1  -0.00000  0.50000  -0.00000  1
 Ga  Ga3  1  0.50000  0.00000  -0.00000  1
 Ga  Ga4  1  0.50000  0.50000  0.50000  1
 Ni  Ni1  1  0.66335  0.66335  0.32671  1
 Ni  Ni2  1  0.66335  0.32671  0.66335  1
 Ni  Ni3  1  0.66335  0.00000  0.33665  1
 Ni  Ni4  1  0.00000  0.66335  0.33665  1
 Ni  Ni5  1  0.66335  0.33665  -0.00000  1
 Ni  Ni6  1  0.33665  0.33665  0.67329  1
 Ni  Ni7  1  0.00000  0.33665  0.66335  1
 Ni  Ni8  1  0.33665  0.66335  -0.00000  1
 Ni  Ni9  1  0.32671  0.66335  0.66335  1
 Ni  Ni10  1  0.67329  0.33665  0.33665  1
 Ni  Ni11  1  0.33665  0.67329  0.33665  1
 Ni  Ni12  1  0.33665  0.00000  0.66335  1
 Tb  Tb1  1  0.00000  0.70956  0.70956  1
 Tb  Tb2  1  0.70956  0.00000  0.70956  1
 Tb  Tb3  1  0.29044  0.29044  -0.00000  1
 Tb  Tb4  1  -0.00000  0.29044  0.29044  1
 Tb  Tb5  1  0.29044  -0.00000  0.29044  1
 Tb  Tb6  1  0.70956  0.70956  0.00000  1
