CIF file written using JARVIS-Tools package.
data_NeSe2
_symmetry_space_group_name_H-M  'C2/m'
_cell_length_a       4.43268
_cell_length_b       3.65399
_cell_length_c       5.80695
_cell_angle_alpha    90
_cell_angle_beta     102.719
_cell_angle_gamma    114.341

_symmetry_Int_Tables_number  12
_chemical_formula_structural  NeSe2
_chemical_formula_sum  NeSe2
_cell_volume  83.15453692576408
_cell_formula_units_Z  1
loop_
  _symmetry_equiv_pos_site_id
 _symmetry_equiv_pos_as_xyz
 1  'x, y, z'
loop_
 _atom_site_type_symbol
 _atom_site_label
 _atom_site_symmetry_multiplicity
 _atom_site_fract_x
 _atom_site_fract_y
 _atom_site_fract_z
 _atom_site_fract_occupancy
 Ne  Ne1  1  -0.00000  0.33370  0.16667  1
 Se  Se1  1  0.71619  0.69124  0.57680  1
 Se  Se2  1  0.28381  -0.02495  0.75653  1
