CIF file written using JARVIS-Tools package.
data_NdSe2
_symmetry_space_group_name_H-M  'C2/m'
_cell_length_a       4.43774
_cell_length_b       4.32104
_cell_length_c       5.93264
_cell_angle_alpha    90
_cell_angle_beta     104.879
_cell_angle_gamma    119.134

_symmetry_Int_Tables_number  12
_chemical_formula_structural  NdSe2
_chemical_formula_sum  NdSe2
_cell_volume  94.97879678531176
_cell_formula_units_Z  1
loop_
  _symmetry_equiv_pos_site_id
 _symmetry_equiv_pos_as_xyz
 1  'x, y, z'
loop_
 _atom_site_type_symbol
 _atom_site_label
 _atom_site_symmetry_multiplicity
 _atom_site_fract_x
 _atom_site_fract_y
 _atom_site_fract_z
 _atom_site_fract_occupancy
 Nd  Nd1  1  0.00000  0.33331  0.16667  1
 Se  Se1  1  0.76786  0.71728  0.43417  1
 Se  Se2  1  0.23214  -0.05059  0.89916  1
