CIF file written using JARVIS-Tools package.
data_MoSe2
_symmetry_space_group_name_H-M  'P-3m1'
_cell_length_a       3.32349
_cell_length_b       3.32069
_cell_length_c       6.57446
_cell_angle_alpha    90
_cell_angle_beta     90.1413
_cell_angle_gamma    119.972

_symmetry_Int_Tables_number  164
_chemical_formula_structural  MoSe2
_chemical_formula_sum  MoSe2
_cell_volume  62.85402266837652
_cell_formula_units_Z  1
loop_
  _symmetry_equiv_pos_site_id
 _symmetry_equiv_pos_as_xyz
 1  'x, y, z'
loop_
 _atom_site_type_symbol
 _atom_site_label
 _atom_site_symmetry_multiplicity
 _atom_site_fract_x
 _atom_site_fract_y
 _atom_site_fract_z
 _atom_site_fract_occupancy
 Mo  Mo1  1  -0.00000  0.33334  0.16667  1
 Se  Se1  1  0.66824  0.66745  0.42676  1
 Se  Se2  1  0.33176  -0.00079  0.90657  1
