CIF file written using JARVIS-Tools package.
data_AlNO4
_symmetry_space_group_name_H-M  'I-4'
_cell_length_a       4.52534
_cell_length_b       4.52534
_cell_length_c       4.52534
_cell_angle_alpha    120.388
_cell_angle_beta     120.388
_cell_angle_gamma    89.329

_symmetry_Int_Tables_number  82
_chemical_formula_structural  AlNO4
_chemical_formula_sum  AlNO4
_cell_volume  65.14046953589747
_cell_formula_units_Z  1
loop_
  _symmetry_equiv_pos_site_id
 _symmetry_equiv_pos_as_xyz
 1  'x, y, z'
loop_
 _atom_site_type_symbol
 _atom_site_label
 _atom_site_symmetry_multiplicity
 _atom_site_fract_x
 _atom_site_fract_y
 _atom_site_fract_z
 _atom_site_fract_occupancy
 Al  Al1  1  0.00000  0.00000  0.00000  1
 N  N1  1  0.75000  0.25000  0.50000  1
 O  O1  1  0.03916  0.56180  0.86227  1
 O  O2  1  0.82311  -0.03916  0.52264  1
 O  O3  1  0.69953  0.17689  0.13773  1
 O  O4  1  0.43820  0.30047  0.47736  1
