CIF file written using JARVIS-Tools package.
data_PbSe2
_symmetry_space_group_name_H-M  'C2/m'
_cell_length_a       4.74634
_cell_length_b       4.52475
_cell_length_c       5.91046
_cell_angle_alpha    90
_cell_angle_beta     112.271
_cell_angle_gamma    118.467

_symmetry_Int_Tables_number  12
_chemical_formula_structural  PbSe2
_chemical_formula_sum  PbSe2
_cell_volume  100.68342108087755
_cell_formula_units_Z  1
loop_
  _symmetry_equiv_pos_site_id
 _symmetry_equiv_pos_as_xyz
 1  'x, y, z'
loop_
 _atom_site_type_symbol
 _atom_site_label
 _atom_site_symmetry_multiplicity
 _atom_site_fract_x
 _atom_site_fract_y
 _atom_site_fract_z
 _atom_site_fract_occupancy
 Pb  Pb1  1  0.00000  0.33336  0.16667  1
 Se  Se1  1  0.81160  0.73912  0.44420  1
 Se  Se2  1  0.18840  -0.07248  0.88914  1
