CIF file written using JARVIS-Tools package.
data_Se2O
_symmetry_space_group_name_H-M  'C2'
_cell_length_a       3.86775
_cell_length_b       4.05506
_cell_length_c       4.40856
_cell_angle_alpha    90
_cell_angle_beta     89.118
_cell_angle_gamma    121.615

_symmetry_Int_Tables_number  5
_chemical_formula_structural  Se2O
_chemical_formula_sum  Se2O
_cell_volume  58.87242412467756
_cell_formula_units_Z  1
loop_
  _symmetry_equiv_pos_site_id
 _symmetry_equiv_pos_as_xyz
 1  'x, y, z'
loop_
 _atom_site_type_symbol
 _atom_site_label
 _atom_site_symmetry_multiplicity
 _atom_site_fract_x
 _atom_site_fract_y
 _atom_site_fract_z
 _atom_site_fract_occupancy
 O  O1  1  -0.00000  0.18009  0.16667  1
 Se  Se1  1  0.74621  0.78306  0.47336  1
 Se  Se2  1  0.25379  0.03685  0.85997  1
