CIF file written using JARVIS-Tools package.
data_OsSe2
_symmetry_space_group_name_H-M  'C2/m'
_cell_length_a       3.79627
_cell_length_b       3.18941
_cell_length_c       5.57478
_cell_angle_alpha    90
_cell_angle_beta     93.1857
_cell_angle_gamma    114.839

_symmetry_Int_Tables_number  12
_chemical_formula_structural  OsSe2
_chemical_formula_sum  OsSe2
_cell_volume  61.13942415613737
_cell_formula_units_Z  1
loop_
  _symmetry_equiv_pos_site_id
 _symmetry_equiv_pos_as_xyz
 1  'x, y, z'
loop_
 _atom_site_type_symbol
 _atom_site_label
 _atom_site_symmetry_multiplicity
 _atom_site_fract_x
 _atom_site_fract_y
 _atom_site_fract_z
 _atom_site_fract_occupancy
 Os  Os1  1  -0.00000  0.33333  0.16667  1
 Se  Se1  1  0.62628  0.64648  0.42217  1
 Se  Se2  1  0.37372  0.02020  0.91116  1
