CIF file written using JARVIS-Tools package.
data_AlNO2
_symmetry_space_group_name_H-M  'Imm2'
_cell_length_a       4.0406
_cell_length_b       4.0406
_cell_length_c       4.0406
_cell_angle_alpha    138.137
_cell_angle_beta     108.814
_cell_angle_gamma    86.1444

_symmetry_Int_Tables_number  44
_chemical_formula_structural  AlNO2
_chemical_formula_sum  AlNO2
_cell_volume  40.0798534570819
_cell_formula_units_Z  1
loop_
  _symmetry_equiv_pos_site_id
 _symmetry_equiv_pos_as_xyz
 1  'x, y, z'
loop_
 _atom_site_type_symbol
 _atom_site_label
 _atom_site_symmetry_multiplicity
 _atom_site_fract_x
 _atom_site_fract_y
 _atom_site_fract_z
 _atom_site_fract_occupancy
 Al  Al1  1  -0.04777  -0.04777  -0.00000  1
 N  N1  1  0.64240  0.64240  -0.00000  1
 O  O1  1  0.75042  0.50268  0.24773  1
 O  O2  1  0.25495  0.50269  0.75227  1
