CIF file written using JARVIS-Tools package.
data_KBe2B3O7
_symmetry_space_group_name_H-M  'C2/c'
_cell_length_a       6.90139
_cell_length_b       6.90139
_cell_length_c       6.4481
_cell_angle_alpha    71.7051
_cell_angle_beta     71.7051
_cell_angle_gamma    81.8228

_symmetry_Int_Tables_number  15
_chemical_formula_structural  KBe2B3O7
_chemical_formula_sum  K2Be4B6O4
_cell_volume  276.52971133386654
_cell_formula_units_Z  2
loop_
  _symmetry_equiv_pos_site_id
 _symmetry_equiv_pos_as_xyz
 1  'x, y, z'
loop_
 _atom_site_type_symbol
 _atom_site_label
 _atom_site_symmetry_multiplicity
 _atom_site_fract_x
 _atom_site_fract_y
 _atom_site_fract_z
 _atom_site_fract_occupancy
 B  B1  1  0.26626  0.22947  0.81731  1
 B  B2  1  0.45140  0.54860  0.25000  1
 B  B3  1  0.73374  0.77053  0.18269  1
 B  B4  1  0.22947  0.26626  0.31731  1
 B  B5  1  0.54860  0.45140  0.75000  1
 B  B6  1  0.77053  0.73374  0.68269  1
 Be  Be1  1  0.05736  0.63553  0.34128  1
 Be  Be2  1  0.36447  0.94264  0.15872  1
 Be  Be3  1  0.94264  0.36447  0.65872  1
 Be  Be4  1  0.63553  0.05736  0.84128  1
 K  K1  1  0.17892  0.82108  0.75000  1
 K  K2  1  0.82108  0.17892  0.25000  1
 O  O1  1  0.22010  0.07710  0.30706  1
 O  O2  1  0.70085  0.29915  0.75000  1
 O  O3  1  0.94407  0.61274  0.61998  1
 O  O4  1  0.38726  0.05593  0.88002  1
 O  O5  1  0.05593  0.38726  0.38002  1
 O  O6  1  0.29915  0.70085  0.25000  1
 O  O7  1  0.07710  0.22010  0.80706  1
 O  O8  1  0.34988  0.42063  0.76571  1
 O  O9  1  0.42063  0.34988  0.26571  1
 O  O10  1  0.65012  0.57937  0.23429  1
 O  O11  1  0.77990  0.92290  0.69294  1
 O  O12  1  0.61274  0.94407  0.11998  1
 O  O13  1  0.57937  0.65012  0.73429  1
 O  O14  1  0.92290  0.77990  0.19294  1
