CIF file written using JARVIS-Tools package.
data_RbSe2
_symmetry_space_group_name_H-M  'C2/m'
_cell_length_a       4.98746
_cell_length_b       4.41321
_cell_length_c       5.07121
_cell_angle_alpha    90
_cell_angle_beta     99.3444
_cell_angle_gamma    116.259

_symmetry_Int_Tables_number  12
_chemical_formula_structural  RbSe2
_chemical_formula_sum  RbSe2
_cell_volume  98.44766619204991
_cell_formula_units_Z  1
loop_
  _symmetry_equiv_pos_site_id
 _symmetry_equiv_pos_as_xyz
 1  'x, y, z'
loop_
 _atom_site_type_symbol
 _atom_site_label
 _atom_site_symmetry_multiplicity
 _atom_site_fract_x
 _atom_site_fract_y
 _atom_site_fract_z
 _atom_site_fract_occupancy
 Rb  Rb1  1  -0.00000  0.33330  0.16667  1
 Se  Se1  1  0.72759  0.69715  0.61953  1
 Se  Se2  1  0.27241  -0.03044  0.71381  1
