CIF file written using JARVIS-Tools package.
data_RhSe2
_symmetry_space_group_name_H-M  'P-3m1'
_cell_length_a       3.67618
_cell_length_b       3.68386
_cell_length_c       5.1295
_cell_angle_alpha    90
_cell_angle_beta     90.0451
_cell_angle_gamma    120.069

_symmetry_Int_Tables_number  164
_chemical_formula_structural  RhSe2
_chemical_formula_sum  RhSe2
_cell_volume  60.11774752387989
_cell_formula_units_Z  1
loop_
  _symmetry_equiv_pos_site_id
 _symmetry_equiv_pos_as_xyz
 1  'x, y, z'
loop_
 _atom_site_type_symbol
 _atom_site_label
 _atom_site_symmetry_multiplicity
 _atom_site_fract_x
 _atom_site_fract_y
 _atom_site_fract_z
 _atom_site_fract_occupancy
 Rh  Rh1  1  -0.00000  0.33335  0.16667  1
 Se  Se1  1  0.66840  0.66753  0.42632  1
 Se  Se2  1  0.33160  -0.00087  0.90701  1
