CIF file written using JARVIS-Tools package.
data_PrSe2
_symmetry_space_group_name_H-M  'C2/m'
_cell_length_a       4.47909
_cell_length_b       4.36214
_cell_length_c       5.92273
_cell_angle_alpha    90
_cell_angle_beta     104.796
_cell_angle_gamma    119.14

_symmetry_Int_Tables_number  12
_chemical_formula_structural  PrSe2
_chemical_formula_sum  PrSe2
_cell_volume  96.6573268782784
_cell_formula_units_Z  1
loop_
  _symmetry_equiv_pos_site_id
 _symmetry_equiv_pos_as_xyz
 1  'x, y, z'
loop_
 _atom_site_type_symbol
 _atom_site_label
 _atom_site_symmetry_multiplicity
 _atom_site_fract_x
 _atom_site_fract_y
 _atom_site_fract_z
 _atom_site_fract_occupancy
 Pr  Pr1  1  0.00000  0.33336  0.16667  1
 Se  Se1  1  0.76602  0.71633  0.43538  1
 Se  Se2  1  0.23398  -0.04969  0.89796  1
