CIF file written using JARVIS-Tools package.
data_SiSe2
_symmetry_space_group_name_H-M  'P-4m2'
_cell_length_a       3.5953
_cell_length_b       5.02782
_cell_length_c       5.86731
_cell_angle_alpha    90
_cell_angle_beta     90.0024
_cell_angle_gamma    134.365

_symmetry_Int_Tables_number  115
_chemical_formula_structural  SiSe2
_chemical_formula_sum  SiSe2
_cell_volume  75.82316033001108
_cell_formula_units_Z  1
loop_
  _symmetry_equiv_pos_site_id
 _symmetry_equiv_pos_as_xyz
 1  'x, y, z'
loop_
 _atom_site_type_symbol
 _atom_site_label
 _atom_site_symmetry_multiplicity
 _atom_site_fract_x
 _atom_site_fract_y
 _atom_site_fract_z
 _atom_site_fract_occupancy
 Se  Se1  1  0.50004  0.66668  0.41940  1
 Se  Se2  1  0.49996  0.16664  0.91393  1
 Si  Si1  1  -0.00000  0.16668  0.16667  1
