CIF file written using JARVIS-Tools package.
data_RuSe2
_symmetry_space_group_name_H-M  'C2/m'
_cell_length_a       3.75372
_cell_length_b       3.19932
_cell_length_c       5.47703
_cell_angle_alpha    90
_cell_angle_beta     91.8802
_cell_angle_gamma    115.224

_symmetry_Int_Tables_number  12
_chemical_formula_structural  RuSe2
_chemical_formula_sum  RuSe2
_cell_volume  59.464584619195655
_cell_formula_units_Z  1
loop_
  _symmetry_equiv_pos_site_id
 _symmetry_equiv_pos_as_xyz
 1  'x, y, z'
loop_
 _atom_site_type_symbol
 _atom_site_label
 _atom_site_symmetry_multiplicity
 _atom_site_fract_x
 _atom_site_fract_y
 _atom_site_fract_z
 _atom_site_fract_occupancy
 Ru  Ru1  1  -0.00000  0.33332  0.16667  1
 Se  Se1  1  0.62075  0.64372  0.42675  1
 Se  Se2  1  0.37925  0.02296  0.90658  1
