CIF file written using JARVIS-Tools package.
data_ScSe2
_symmetry_space_group_name_H-M  'C2/m'
_cell_length_a       4.0142
_cell_length_b       3.87542
_cell_length_c       5.84649
_cell_angle_alpha    90
_cell_angle_beta     105.271
_cell_angle_gamma    118.863

_symmetry_Int_Tables_number  12
_chemical_formula_structural  ScSe2
_chemical_formula_sum  ScSe2
_cell_volume  75.96643598102868
_cell_formula_units_Z  1
loop_
  _symmetry_equiv_pos_site_id
 _symmetry_equiv_pos_as_xyz
 1  'x, y, z'
loop_
 _atom_site_type_symbol
 _atom_site_label
 _atom_site_symmetry_multiplicity
 _atom_site_fract_x
 _atom_site_fract_y
 _atom_site_fract_z
 _atom_site_fract_occupancy
 Sc  Sc1  1  -0.00000  0.33332  0.16667  1
 Se  Se1  1  0.77736  0.72202  0.42194  1
 Se  Se2  1  0.22264  -0.05534  0.91139  1
