CIF file written using JARVIS-Tools package.
data_SbSe2
_symmetry_space_group_name_H-M  'C2/m'
_cell_length_a       3.93231
_cell_length_b       3.91845
_cell_length_c       5.98613
_cell_angle_alpha    90
_cell_angle_beta     90.6484
_cell_angle_gamma    119.883

_symmetry_Int_Tables_number  12
_chemical_formula_structural  SbSe2
_chemical_formula_sum  SbSe2
_cell_volume  79.96719306356779
_cell_formula_units_Z  1
loop_
  _symmetry_equiv_pos_site_id
 _symmetry_equiv_pos_as_xyz
 1  'x, y, z'
loop_
 _atom_site_type_symbol
 _atom_site_label
 _atom_site_symmetry_multiplicity
 _atom_site_fract_x
 _atom_site_fract_y
 _atom_site_fract_z
 _atom_site_fract_occupancy
 Sb  Sb1  1  0.00000  0.33328  0.16667  1
 Se  Se1  1  0.67138  0.66905  0.45119  1
 Se  Se2  1  0.32862  -0.00233  0.88215  1
