CIF file written using JARVIS-Tools package.
data_Se2S
_symmetry_space_group_name_H-M  'C2'
_cell_length_a       4.16701
_cell_length_b       4.36805
_cell_length_c       4.93588
_cell_angle_alpha    90.0001
_cell_angle_beta     88.9432
_cell_angle_gamma    121.609

_symmetry_Int_Tables_number  5
_chemical_formula_structural  Se2S
_chemical_formula_sum  Se2S
_cell_volume  76.4947969181309
_cell_formula_units_Z  1
loop_
  _symmetry_equiv_pos_site_id
 _symmetry_equiv_pos_as_xyz
 1  'x, y, z'
loop_
 _atom_site_type_symbol
 _atom_site_label
 _atom_site_symmetry_multiplicity
 _atom_site_fract_x
 _atom_site_fract_y
 _atom_site_fract_z
 _atom_site_fract_occupancy
 S  S1  1  0.00000  0.21349  0.16667  1
 Se  Se1  1  0.75816  0.77233  0.49326  1
 Se  Se2  1  0.24184  0.01417  0.84008  1
