CIF file written using JARVIS-Tools package.
data_SnSe2
_symmetry_space_group_name_H-M  'P-3m1'
_cell_length_a       3.89398
_cell_length_b       3.8952
_cell_length_c       6.12161
_cell_angle_alpha    90
_cell_angle_beta     90.028
_cell_angle_gamma    120.01

_symmetry_Int_Tables_number  164
_chemical_formula_structural  SnSe2
_chemical_formula_sum  SnSe2
_cell_volume  80.40343248976716
_cell_formula_units_Z  1
loop_
  _symmetry_equiv_pos_site_id
 _symmetry_equiv_pos_as_xyz
 1  'x, y, z'
loop_
 _atom_site_type_symbol
 _atom_site_label
 _atom_site_symmetry_multiplicity
 _atom_site_fract_x
 _atom_site_fract_y
 _atom_site_fract_z
 _atom_site_fract_occupancy
 Se  Se1  1  0.66695  0.66680  0.42847  1
 Se  Se2  1  0.33305  -0.00015  0.90487  1
 Sn  Sn1  1  0.00000  0.33336  0.16667  1
