CIF file written using JARVIS-Tools package.
data_SmSe2
_symmetry_space_group_name_H-M  'C2/m'
_cell_length_a       4.36816
_cell_length_b       4.24874
_cell_length_c       5.95254
_cell_angle_alpha    90
_cell_angle_beta     105.089
_cell_angle_gamma    119.1

_symmetry_Int_Tables_number  12
_chemical_formula_structural  SmSe2
_chemical_formula_sum  SmSe2
_cell_volume  92.1462131717222
_cell_formula_units_Z  1
loop_
  _symmetry_equiv_pos_site_id
 _symmetry_equiv_pos_as_xyz
 1  'x, y, z'
loop_
 _atom_site_type_symbol
 _atom_site_label
 _atom_site_symmetry_multiplicity
 _atom_site_fract_x
 _atom_site_fract_y
 _atom_site_fract_z
 _atom_site_fract_occupancy
 Se  Se1  1  0.77135  0.71900  0.43189  1
 Se  Se2  1  0.22865  -0.05235  0.90144  1
 Sm  Sm1  1  0.00000  0.33335  0.16667  1
