CIF file written using JARVIS-Tools package.
data_AlNO4
_symmetry_space_group_name_H-M  'Cmmm'
_cell_length_a       4.23865
_cell_length_b       4.23865
_cell_length_c       2.82038
_cell_angle_alpha    90
_cell_angle_beta     90
_cell_angle_gamma    93.6224

_symmetry_Int_Tables_number  65
_chemical_formula_structural  AlNO4
_chemical_formula_sum  AlNO4
_cell_volume  50.57012389247993
_cell_formula_units_Z  1
loop_
  _symmetry_equiv_pos_site_id
 _symmetry_equiv_pos_as_xyz
 1  'x, y, z'
loop_
 _atom_site_type_symbol
 _atom_site_label
 _atom_site_symmetry_multiplicity
 _atom_site_fract_x
 _atom_site_fract_y
 _atom_site_fract_z
 _atom_site_fract_occupancy
 Al  Al1  1  0.00000  0.00000  0.00000  1
 N  N1  1  0.50000  0.50000  0.50000  1
 O  O1  1  0.20123  0.20123  0.50000  1
 O  O2  1  0.31551  0.68449  0.00000  1
 O  O3  1  0.79877  0.79877  0.50000  1
 O  O4  1  0.68449  0.31551  0.00000  1
