CIF file written using JARVIS-Tools package.
data_K4V2O9
_symmetry_space_group_name_H-M  'Cmcm'
_cell_length_a       8.10811
_cell_length_b       8.1081
_cell_length_c       8.01909
_cell_angle_alpha    90
_cell_angle_beta     90
_cell_angle_gamma    96.78

_symmetry_Int_Tables_number  63
_chemical_formula_structural  K4V2O9
_chemical_formula_sum  K8V4O8
_cell_volume  523.4989163806306
_cell_formula_units_Z  2
loop_
  _symmetry_equiv_pos_site_id
 _symmetry_equiv_pos_as_xyz
 1  'x, y, z'
loop_
 _atom_site_type_symbol
 _atom_site_label
 _atom_site_symmetry_multiplicity
 _atom_site_fract_x
 _atom_site_fract_y
 _atom_site_fract_z
 _atom_site_fract_occupancy
 K  K1  1  0.46311  0.53689  0.25000  1
 K  K2  1  0.53689  0.46311  0.75000  1
 K  K3  1  0.98753  0.01247  0.25000  1
 K  K4  1  0.01247  0.98753  0.75000  1
 K  K5  1  0.90515  0.54085  0.25000  1
 K  K6  1  0.54085  0.90515  0.75000  1
 K  K7  1  0.09485  0.45915  0.75000  1
 K  K8  1  0.45915  0.09485  0.25000  1
 O  O1  1  0.02467  0.71637  0.96356  1
 O  O2  1  0.97533  0.28363  0.03644  1
 O  O3  1  0.28363  0.97533  0.53644  1
 O  O4  1  0.97533  0.28363  0.46356  1
 O  O5  1  0.02467  0.71637  0.53644  1
 O  O6  1  0.83558  0.67840  0.75000  1
 O  O7  1  0.71637  0.02467  0.46356  1
 O  O8  1  0.35460  0.64540  0.55717  1
 O  O9  1  0.71637  0.02467  0.03644  1
 O  O10  1  0.64540  0.35460  0.44283  1
 O  O11  1  0.76861  0.23139  0.75000  1
 O  O12  1  0.64540  0.35460  0.05717  1
 O  O13  1  0.23139  0.76861  0.25000  1
 O  O14  1  0.28363  0.97533  0.96356  1
 O  O15  1  0.16442  0.32160  0.25000  1
 O  O16  1  0.32160  0.16442  0.75000  1
 O  O17  1  0.35460  0.64540  0.94283  1
 O  O18  1  0.67840  0.83558  0.25000  1
 V  V1  1  0.22536  0.77464  0.47706  1
 V  V2  1  0.77464  0.22536  0.52294  1
 V  V3  1  0.22536  0.77464  0.02294  1
 V  V4  1  0.77464  0.22536  0.97706  1
