CIF file written using JARVIS-Tools package.
data_SrSe2
_symmetry_space_group_name_H-M  'C2/m'
_cell_length_a       6.14719
_cell_length_b       4.18607
_cell_length_c       4.19578
_cell_angle_alpha    90
_cell_angle_beta     118.719
_cell_angle_gamma    109.906

_symmetry_Int_Tables_number  12
_chemical_formula_structural  SrSe2
_chemical_formula_sum  SrSe2
_cell_volume  87.25855952574615
_cell_formula_units_Z  1
loop_
  _symmetry_equiv_pos_site_id
 _symmetry_equiv_pos_as_xyz
 1  'x, y, z'
loop_
 _atom_site_type_symbol
 _atom_site_label
 _atom_site_symmetry_multiplicity
 _atom_site_fract_x
 _atom_site_fract_y
 _atom_site_fract_z
 _atom_site_fract_occupancy
 Se  Se1  1  0.74934  0.70802  0.46288  1
 Se  Se2  1  0.25066  -0.04132  0.87045  1
 Sr  Sr1  1  -0.00000  0.33330  0.16667  1
