CIF file written using JARVIS-Tools package.
data_AlPN3
_symmetry_space_group_name_H-M  'Amm2'
_cell_length_a       2.83596
_cell_length_b       4.96731
_cell_length_c       4.96731
_cell_angle_alpha    59.1411
_cell_angle_beta     90
_cell_angle_gamma    90

_symmetry_Int_Tables_number  38
_chemical_formula_structural  AlPN3
_chemical_formula_sum  AlPN3
_cell_volume  60.068684532002294
_cell_formula_units_Z  1
loop_
  _symmetry_equiv_pos_site_id
 _symmetry_equiv_pos_as_xyz
 1  'x, y, z'
loop_
 _atom_site_type_symbol
 _atom_site_label
 _atom_site_symmetry_multiplicity
 _atom_site_fract_x
 _atom_site_fract_y
 _atom_site_fract_z
 _atom_site_fract_occupancy
 Al  Al1  1  0.00000  0.58567  0.58567  1
 N  N1  1  0.50000  0.77312  0.28920  1
 N  N2  1  0.00000  0.80774  0.80774  1
 N  N3  1  0.50000  0.28920  0.77312  1
 P  P1  1  0.50000  0.91622  0.91622  1
