CIF file written using JARVIS-Tools package.
data_TbSe2
_symmetry_space_group_name_H-M  'C2/m'
_cell_length_a       4.28462
_cell_length_b       4.15936
_cell_length_c       5.9373
_cell_angle_alpha    90
_cell_angle_beta     104.974
_cell_angle_gamma    119.037

_symmetry_Int_Tables_number  12
_chemical_formula_structural  TbSe2
_chemical_formula_sum  TbSe2
_cell_volume  88.37774548715446
_cell_formula_units_Z  1
loop_
  _symmetry_equiv_pos_site_id
 _symmetry_equiv_pos_as_xyz
 1  'x, y, z'
loop_
 _atom_site_type_symbol
 _atom_site_label
 _atom_site_symmetry_multiplicity
 _atom_site_fract_x
 _atom_site_fract_y
 _atom_site_fract_z
 _atom_site_fract_occupancy
 Se  Se1  1  0.77153  0.71909  0.42946  1
 Se  Se2  1  0.22847  -0.05244  0.90387  1
 Tb  Tb1  1  -0.00000  0.33335  0.16667  1
