CIF file written using JARVIS-Tools package.
data_ThSe2
_symmetry_space_group_name_H-M  'P-3m1'
_cell_length_a       4.33522
_cell_length_b       4.33534
_cell_length_c       6.16953
_cell_angle_alpha    90
_cell_angle_beta     90.0042
_cell_angle_gamma    120.001

_symmetry_Int_Tables_number  164
_chemical_formula_structural  ThSe2
_chemical_formula_sum  ThSe2
_cell_volume  100.41829330129129
_cell_formula_units_Z  1
loop_
  _symmetry_equiv_pos_site_id
 _symmetry_equiv_pos_as_xyz
 1  'x, y, z'
loop_
 _atom_site_type_symbol
 _atom_site_label
 _atom_site_symmetry_multiplicity
 _atom_site_fract_x
 _atom_site_fract_y
 _atom_site_fract_z
 _atom_site_fract_occupancy
 Se  Se1  1  0.66667  0.66668  0.41410  1
 Se  Se2  1  0.33333  0.00000  0.91924  1
 Th  Th1  1  0.00000  0.33332  0.16667  1
