CIF file written using JARVIS-Tools package.
data_NiP
_symmetry_space_group_name_H-M  'Cmc2_1'
_cell_length_a       12.4429
_cell_length_b       12.4429
_cell_length_c       4.9369
_cell_angle_alpha    90
_cell_angle_beta     90
_cell_angle_gamma    152.162

_symmetry_Int_Tables_number  36
_chemical_formula_structural  NiP
_chemical_formula_sum  Ni4P4
_cell_volume  356.9280217786059
_cell_formula_units_Z  14
loop_
  _symmetry_equiv_pos_site_id
 _symmetry_equiv_pos_as_xyz
 1  'x, y, z'
loop_
 _atom_site_type_symbol
 _atom_site_label
 _atom_site_symmetry_multiplicity
 _atom_site_fract_x
 _atom_site_fract_y
 _atom_site_fract_z
 _atom_site_fract_occupancy
 Ni  Ni1  1  0.50726  0.38353  0.42497  1
 Ni  Ni2  1  0.38353  0.50726  0.42497  1
 Ni  Ni3  1  0.49274  0.61647  0.92497  1
 Ni  Ni4  1  0.61647  0.49274  0.92497  1
 Ni  Ni5  1  0.79478  0.09253  0.41251  1
 Ni  Ni6  1  0.09253  0.79478  0.41251  1
 Ni  Ni7  1  0.05047  0.05047  0.39621  1
 Ni  Ni8  1  0.20522  0.90747  0.91251  1
 Ni  Ni9  1  0.35262  0.76435  0.37849  1
 Ni  Ni10  1  0.76435  0.35262  0.37849  1
 Ni  Ni11  1  0.64738  0.23565  0.87849  1
 Ni  Ni12  1  0.23565  0.64738  0.87849  1
 Ni  Ni13  1  0.94953  0.94953  0.89621  1
 Ni  Ni14  1  0.90747  0.20522  0.91251  1
 P  P1  1  0.68770  0.68770  0.23296  1
 P  P2  1  0.25368  0.11569  0.09640  1
 P  P3  1  0.11569  0.25368  0.09640  1
 P  P4  1  0.74632  0.88431  0.59640  1
 P  P5  1  0.54745  0.83731  0.06922  1
 P  P6  1  0.88431  0.74632  0.59640  1
 P  P7  1  0.40416  0.98158  0.22197  1
 P  P8  1  0.16269  0.45255  0.56922  1
 P  P9  1  0.98158  0.40416  0.22197  1
 P  P10  1  0.59584  0.01842  0.72197  1
 P  P11  1  0.01842  0.59584  0.72197  1
 P  P12  1  0.83731  0.54745  0.06922  1
 P  P13  1  0.45255  0.16269  0.56922  1
 P  P14  1  0.31230  0.31230  0.73296  1
