CIF file written using JARVIS-Tools package.
data_TmSe2
_symmetry_space_group_name_H-M  'C2/m'
_cell_length_a       4.20453
_cell_length_b       4.07083
_cell_length_c       5.91808
_cell_angle_alpha    90.0001
_cell_angle_beta     104.805
_cell_angle_gamma    118.953

_symmetry_Int_Tables_number  12
_chemical_formula_structural  TmSe2
_chemical_formula_sum  TmSe2
_cell_volume  84.76929006358272
_cell_formula_units_Z  1
loop_
  _symmetry_equiv_pos_site_id
 _symmetry_equiv_pos_as_xyz
 1  'x, y, z'
loop_
 _atom_site_type_symbol
 _atom_site_label
 _atom_site_symmetry_multiplicity
 _atom_site_fract_x
 _atom_site_fract_y
 _atom_site_fract_z
 _atom_site_fract_occupancy
 Se  Se1  1  0.77089  0.71877  0.42684  1
 Se  Se2  1  0.22911  -0.05212  0.90649  1
 Tm  Tm1  1  -0.00000  0.33336  0.16667  1
