CIF file written using JARVIS-Tools package.
data_TiSe2
_symmetry_space_group_name_H-M  'P-3m1'
_cell_length_a       3.54185
_cell_length_b       3.55149
_cell_length_c       6.08335
_cell_angle_alpha    90
_cell_angle_beta     90.0331
_cell_angle_gamma    120.09

_symmetry_Int_Tables_number  164
_chemical_formula_structural  TiSe2
_chemical_formula_sum  TiSe2
_cell_volume  66.2092011955017
_cell_formula_units_Z  1
loop_
  _symmetry_equiv_pos_site_id
 _symmetry_equiv_pos_as_xyz
 1  'x, y, z'
loop_
 _atom_site_type_symbol
 _atom_site_label
 _atom_site_symmetry_multiplicity
 _atom_site_fract_x
 _atom_site_fract_y
 _atom_site_fract_z
 _atom_site_fract_occupancy
 Se  Se1  1  0.66687  0.66676  0.42108  1
 Se  Se2  1  0.33313  -0.00011  0.91226  1
 Ti  Ti1  1  0.00000  0.33335  0.16667  1
