CIF file written using JARVIS-Tools package.
data_Ba3SmIr2O9
_symmetry_space_group_name_H-M  'P6_3/mmc'
_cell_length_a       5.96817
_cell_length_b       5.96817
_cell_length_c       14.8354
_cell_angle_alpha    90
_cell_angle_beta     90
_cell_angle_gamma    120

_symmetry_Int_Tables_number  194
_chemical_formula_structural  Ba3SmIr2O9
_chemical_formula_sum  Ba6Sm2Ir4O8
_cell_volume  457.6291182829492
_cell_formula_units_Z  2
loop_
  _symmetry_equiv_pos_site_id
 _symmetry_equiv_pos_as_xyz
 1  'x, y, z'
loop_
 _atom_site_type_symbol
 _atom_site_label
 _atom_site_symmetry_multiplicity
 _atom_site_fract_x
 _atom_site_fract_y
 _atom_site_fract_z
 _atom_site_fract_occupancy
 Ba  Ba1  1  0.00000  0.00000  0.25000  1
 Ba  Ba2  1  0.00000  0.00000  0.75000  1
 Ba  Ba3  1  0.33333  0.66667  0.59563  1
 Ba  Ba4  1  0.66667  0.33333  0.40437  1
 Ba  Ba5  1  0.66667  0.33333  0.09563  1
 Ba  Ba6  1  0.33333  0.66667  0.90437  1
 Ir  Ir1  1  0.33333  0.66667  0.33465  1
 Ir  Ir2  1  0.66667  0.33333  0.66535  1
 Ir  Ir3  1  0.66667  0.33333  0.83465  1
 Ir  Ir4  1  0.33333  0.66667  0.16535  1
 O  O1  1  0.01476  0.50738  0.25000  1
 O  O2  1  0.49262  0.98524  0.25000  1
 O  O3  1  0.49262  0.50738  0.25000  1
 O  O4  1  0.17746  0.35491  0.41108  1
 O  O5  1  0.50738  0.49262  0.75000  1
 O  O6  1  0.50738  0.01476  0.75000  1
 O  O7  1  0.98524  0.49262  0.75000  1
 O  O8  1  0.17746  0.82254  0.08892  1
 O  O9  1  0.64509  0.82254  0.08892  1
 O  O10  1  0.82254  0.64509  0.58892  1
 O  O11  1  0.82254  0.64509  0.91108  1
 O  O12  1  0.35491  0.17746  0.91108  1
 O  O13  1  0.82254  0.17746  0.58892  1
 O  O14  1  0.17746  0.35491  0.08892  1
 O  O15  1  0.35491  0.17746  0.58892  1
 O  O16  1  0.17746  0.82254  0.41108  1
 O  O17  1  0.82254  0.17746  0.91108  1
 O  O18  1  0.64509  0.82254  0.41108  1
 Sm  Sm1  1  0.00000  0.00000  0.00000  1
 Sm  Sm2  1  0.00000  0.00000  0.50000  1
