CIF file written using JARVIS-Tools package.
data_Li2Te
_symmetry_space_group_name_H-M  'P-1'
_cell_length_a       5.24755
_cell_length_b       3.58915
_cell_length_c       7.04488
_cell_angle_alpha    39.8023
_cell_angle_beta     105.848
_cell_angle_gamma    129.443

_symmetry_Int_Tables_number  2
_chemical_formula_structural  Li2Te
_chemical_formula_sum  Li2Te
_cell_volume  59.06471538275456
_cell_formula_units_Z  1
loop_
  _symmetry_equiv_pos_site_id
 _symmetry_equiv_pos_as_xyz
 1  'x, y, z'
loop_
 _atom_site_type_symbol
 _atom_site_label
 _atom_site_symmetry_multiplicity
 _atom_site_fract_x
 _atom_site_fract_y
 _atom_site_fract_z
 _atom_site_fract_occupancy
 Li  Li1  1  0.78220  0.73928  0.72792  1
 Li  Li2  1  0.45773  0.45922  0.35460  1
 Te  Te1  1  0.12005  0.09937  0.04126  1
