CIF file written using JARVIS-Tools package.
data_ZnSe2
_symmetry_space_group_name_H-M  'C2/m'
_cell_length_a       4.15127
_cell_length_b       3.82634
_cell_length_c       5.28526
_cell_angle_alpha    90
_cell_angle_beta     108.572
_cell_angle_gamma    117.443

_symmetry_Int_Tables_number  12
_chemical_formula_structural  ZnSe2
_chemical_formula_sum  ZnSe2
_cell_volume  69.54171984726611
_cell_formula_units_Z  1
loop_
  _symmetry_equiv_pos_site_id
 _symmetry_equiv_pos_as_xyz
 1  'x, y, z'
loop_
 _atom_site_type_symbol
 _atom_site_label
 _atom_site_symmetry_multiplicity
 _atom_site_fract_x
 _atom_site_fract_y
 _atom_site_fract_z
 _atom_site_fract_occupancy
 Se  Se1  1  0.78601  0.72637  0.42677  1
 Se  Se2  1  0.21399  -0.05964  0.90657  1
 Zn  Zn1  1  -0.00000  0.33327  0.16667  1
