CIF file written using JARVIS-Tools package.
data_ZrSiAs
_symmetry_space_group_name_H-M  'Pnma'
_cell_length_a       3.61983
_cell_length_b       6.55268
_cell_length_c       9.35208
_cell_angle_alpha    90
_cell_angle_beta     90
_cell_angle_gamma    90

_symmetry_Int_Tables_number  62
_chemical_formula_structural  ZrSiAs
_chemical_formula_sum  Zr4Si4As4
_cell_volume  221.82727939645687
_cell_formula_units_Z  4
loop_
  _symmetry_equiv_pos_site_id
 _symmetry_equiv_pos_as_xyz
 1  'x, y, z'
loop_
 _atom_site_type_symbol
 _atom_site_label
 _atom_site_symmetry_multiplicity
 _atom_site_fract_x
 _atom_site_fract_y
 _atom_site_fract_z
 _atom_site_fract_occupancy
 As  As1  1  0.25000  0.61434  0.14409  1
 As  As2  1  0.75000  0.38566  0.85591  1
 As  As3  1  0.75000  0.88566  0.64409  1
 As  As4  1  0.25000  0.11434  0.35591  1
 Si  Si1  1  0.25000  0.61471  0.54071  1
 Si  Si2  1  0.75000  0.38529  0.45929  1
 Si  Si3  1  0.75000  0.88529  0.04071  1
 Si  Si4  1  0.25000  0.11471  0.95929  1
 Zr  Zr1  1  0.25000  0.72347  0.83945  1
 Zr  Zr2  1  0.75000  0.27653  0.16055  1
 Zr  Zr3  1  0.75000  0.77653  0.33945  1
 Zr  Zr4  1  0.25000  0.22347  0.66055  1
