CIF file written using JARVIS-Tools package.
data_Tm5Ga3
_symmetry_space_group_name_H-M  'C2/m'
_cell_length_a       8.39541
_cell_length_b       8.39541
_cell_length_c       6.37336
_cell_angle_alpha    89.4435
_cell_angle_beta     89.4435
_cell_angle_gamma    119.737

_symmetry_Int_Tables_number  12
_chemical_formula_structural  Tm5Ga3
_chemical_formula_sum  Tm0Ga6
_cell_volume  389.98212028143513
_cell_formula_units_Z  2
loop_
  _symmetry_equiv_pos_site_id
 _symmetry_equiv_pos_as_xyz
 1  'x, y, z'
loop_
 _atom_site_type_symbol
 _atom_site_label
 _atom_site_symmetry_multiplicity
 _atom_site_fract_x
 _atom_site_fract_y
 _atom_site_fract_z
 _atom_site_fract_occupancy
 Ga  Ga1  1  0.90846  0.90846  0.19063  1
 Ga  Ga2  1  0.09154  0.09154  0.80937  1
 Ga  Ga3  1  0.50179  0.09878  0.28542  1
 Ga  Ga4  1  0.49821  0.90122  0.71458  1
 Ga  Ga5  1  0.90122  0.49821  0.71458  1
 Ga  Ga6  1  0.09878  0.50179  0.28542  1
 Tm  Tm1  1  0.85487  0.14513  0.50000  1
 Tm  Tm2  1  0.14513  0.85487  0.50000  1
 Tm  Tm3  1  0.81452  0.18548  0.00000  1
 Tm  Tm4  1  0.18548  0.81452  -0.00000  1
 Tm  Tm5  1  0.50610  0.74583  0.26449  1
 Tm  Tm6  1  0.49390  0.25417  0.73551  1
 Tm  Tm7  1  0.25417  0.49390  0.73551  1
 Tm  Tm8  1  0.74583  0.50610  0.26449  1
 Tm  Tm9  1  0.26860  0.26860  0.22720  1
 Tm  Tm10  1  0.73140  0.73140  0.77280  1
