CIF file written using JARVIS-Tools package.
data_TmNiAs
_symmetry_space_group_name_H-M  'P6_3/mmc'
_cell_length_a       4.04032
_cell_length_b       4.04032
_cell_length_c       14.965
_cell_angle_alpha    90
_cell_angle_beta     90
_cell_angle_gamma    120

_symmetry_Int_Tables_number  194
_chemical_formula_structural  TmNiAs
_chemical_formula_sum  Tm4Ni4As4
_cell_volume  211.5634453928241
_cell_formula_units_Z  4
loop_
  _symmetry_equiv_pos_site_id
 _symmetry_equiv_pos_as_xyz
 1  'x, y, z'
loop_
 _atom_site_type_symbol
 _atom_site_label
 _atom_site_symmetry_multiplicity
 _atom_site_fract_x
 _atom_site_fract_y
 _atom_site_fract_z
 _atom_site_fract_occupancy
 As  As1  1  0.33333  0.66667  0.61918  1
 As  As2  1  0.66667  0.33333  0.38082  1
 As  As3  1  0.66667  0.33333  0.11918  1
 As  As4  1  0.33333  0.66667  0.88082  1
 Ni  Ni1  1  0.33333  0.66667  0.13673  1
 Ni  Ni2  1  0.66667  0.33333  0.86327  1
 Ni  Ni3  1  0.66667  0.33333  0.63673  1
 Ni  Ni4  1  0.33333  0.66667  0.36327  1
 Tm  Tm1  1  0.00000  0.00000  0.25000  1
 Tm  Tm2  1  0.00000  0.00000  0.75000  1
 Tm  Tm3  1  0.00000  0.00000  0.00000  1
 Tm  Tm4  1  0.00000  0.00000  0.50000  1
