CIF file written using JARVIS-Tools package.
data_Mg2Br
_symmetry_space_group_name_H-M  'Pm'
_cell_length_a       6.55596
_cell_length_b       3.56281
_cell_length_c       3.93447
_cell_angle_alpha    90
_cell_angle_beta     85.9816
_cell_angle_gamma    90

_symmetry_Int_Tables_number  6
_chemical_formula_structural  Mg2Br
_chemical_formula_sum  Mg2Br
_cell_volume  91.67391122525869
_cell_formula_units_Z  1
loop_
  _symmetry_equiv_pos_site_id
 _symmetry_equiv_pos_as_xyz
 1  'x, y, z'
loop_
 _atom_site_type_symbol
 _atom_site_label
 _atom_site_symmetry_multiplicity
 _atom_site_fract_x
 _atom_site_fract_y
 _atom_site_fract_z
 _atom_site_fract_occupancy
 Br  Br1  1  0.43163  0.00000  -0.06365  1
 Mg  Mg1  1  -0.17559  0.00000  0.00018  1
 Mg  Mg2  1  0.14396  0.00000  0.46347  1
