CIF file written using JARVIS-Tools package.
data_UCo2Sn
_symmetry_space_group_name_H-M  'Pnma'
_cell_length_a       3.69581
_cell_length_b       10.0726
_cell_length_c       7.17844
_cell_angle_alpha    90
_cell_angle_beta     90
_cell_angle_gamma    90

_symmetry_Int_Tables_number  62
_chemical_formula_structural  UCo2Sn
_chemical_formula_sum  U4Co8Sn4
_cell_volume  267.22769813749596
_cell_formula_units_Z  4
loop_
  _symmetry_equiv_pos_site_id
 _symmetry_equiv_pos_as_xyz
 1  'x, y, z'
loop_
 _atom_site_type_symbol
 _atom_site_label
 _atom_site_symmetry_multiplicity
 _atom_site_fract_x
 _atom_site_fract_y
 _atom_site_fract_z
 _atom_site_fract_occupancy
 Co  Co1  1  0.75000  0.66097  0.90450  1
 Co  Co2  1  0.25000  0.33903  0.09550  1
 Co  Co3  1  0.25000  0.83903  0.40450  1
 Co  Co4  1  0.75000  0.16097  0.59550  1
 Co  Co5  1  0.75000  0.65749  0.36669  1
 Co  Co6  1  0.25000  0.34251  0.63331  1
 Co  Co7  1  0.25000  0.84251  0.86669  1
 Co  Co8  1  0.75000  0.15749  0.13331  1
 Sn  Sn1  1  0.75000  0.89413  0.13980  1
 Sn  Sn2  1  0.25000  0.10587  0.86020  1
 Sn  Sn3  1  0.25000  0.60587  0.63980  1
 Sn  Sn4  1  0.75000  0.39413  0.36020  1
 U  U1  1  0.75000  0.88015  0.63734  1
 U  U2  1  0.25000  0.11985  0.36266  1
 U  U3  1  0.25000  0.61985  0.13734  1
 U  U4  1  0.75000  0.38015  0.86266  1
