CIF file written using JARVIS-Tools package.
data_Ti4CrBi2
_symmetry_space_group_name_H-M  'I4/mcm'
_cell_length_a       7.86085
_cell_length_b       7.86085
_cell_length_c       7.86086
_cell_angle_alpha    96.001
_cell_angle_beta     96.001
_cell_angle_gamma    142.27

_symmetry_Int_Tables_number  140
_chemical_formula_structural  Ti4CrBi2
_chemical_formula_sum  Ti8Cr2Bi4
_cell_volume  281.2783038139117
_cell_formula_units_Z  2
loop_
  _symmetry_equiv_pos_site_id
 _symmetry_equiv_pos_as_xyz
 1  'x, y, z'
loop_
 _atom_site_type_symbol
 _atom_site_label
 _atom_site_symmetry_multiplicity
 _atom_site_fract_x
 _atom_site_fract_y
 _atom_site_fract_z
 _atom_site_fract_occupancy
 Bi  Bi1  1  0.13953  0.63953  0.77906  1
 Bi  Bi2  1  0.86047  0.36047  0.22094  1
 Bi  Bi3  1  0.36047  0.13953  0.50000  1
 Bi  Bi4  1  0.63953  0.86047  0.50000  1
 Cr  Cr1  1  0.25000  0.25000  0.00000  1
 Cr  Cr2  1  0.75000  0.75000  -0.00000  1
 Ti  Ti1  1  0.07974  0.19205  0.27179  1
 Ti  Ti2  1  0.92026  0.80795  0.72821  1
 Ti  Ti3  1  0.80795  0.07974  0.88769  1
 Ti  Ti4  1  0.42026  0.69205  0.11231  1
 Ti  Ti5  1  0.19205  0.92026  0.11231  1
 Ti  Ti6  1  0.57974  0.30795  0.88769  1
 Ti  Ti7  1  0.69205  0.57974  0.27179  1
 Ti  Ti8  1  0.30795  0.42026  0.72821  1
