CIF file written using JARVIS-Tools package.
data_Ti5Sn3Au
_symmetry_space_group_name_H-M  'P6_3/mcm'
_cell_length_a       8.30899
_cell_length_b       8.30898
_cell_length_c       5.62877
_cell_angle_alpha    90
_cell_angle_beta     90
_cell_angle_gamma    120

_symmetry_Int_Tables_number  193
_chemical_formula_structural  Ti5Sn3Au
_chemical_formula_sum  Ti0Sn6Au2
_cell_volume  336.54261497770676
_cell_formula_units_Z  2
loop_
  _symmetry_equiv_pos_site_id
 _symmetry_equiv_pos_as_xyz
 1  'x, y, z'
loop_
 _atom_site_type_symbol
 _atom_site_label
 _atom_site_symmetry_multiplicity
 _atom_site_fract_x
 _atom_site_fract_y
 _atom_site_fract_z
 _atom_site_fract_occupancy
 Au  Au1  1  0.00000  0.00000  0.00000  1
 Au  Au2  1  0.00000  0.00000  0.50000  1
 Sn  Sn1  1  0.62007  0.62007  0.25000  1
 Sn  Sn2  1  0.37993  0.37993  0.75000  1
 Sn  Sn3  1  0.00000  0.37993  0.25000  1
 Sn  Sn4  1  -0.00000  0.62007  0.75000  1
 Sn  Sn5  1  0.37993  0.00000  0.25000  1
 Sn  Sn6  1  0.62007  -0.00000  0.75000  1
 Ti  Ti1  1  0.71593  0.71593  0.75000  1
 Ti  Ti2  1  0.28407  -0.00000  0.75000  1
 Ti  Ti3  1  0.00000  0.71593  0.25000  1
 Ti  Ti4  1  0.66667  0.33333  0.00000  1
 Ti  Ti5  1  0.28407  0.28407  0.25000  1
 Ti  Ti6  1  0.33333  0.66667  0.50000  1
 Ti  Ti7  1  0.66667  0.33333  0.50000  1
 Ti  Ti8  1  0.33333  0.66667  0.00000  1
 Ti  Ti9  1  -0.00000  0.28407  0.75000  1
 Ti  Ti10  1  0.71593  0.00000  0.25000  1
