CIF file written using JARVIS-Tools package.
data_AlP2
_symmetry_space_group_name_H-M  'R-3m'
_cell_length_a       6.35651
_cell_length_b       3.73203
_cell_length_c       5.15222
_cell_angle_alpha    68.7322
_cell_angle_beta     67.3743
_cell_angle_gamma    125.891

_symmetry_Int_Tables_number  166
_chemical_formula_structural  AlP2
_chemical_formula_sum  AlP2
_cell_volume  56.42474909927467
_cell_formula_units_Z  1
loop_
  _symmetry_equiv_pos_site_id
 _symmetry_equiv_pos_as_xyz
 1  'x, y, z'
loop_
 _atom_site_type_symbol
 _atom_site_label
 _atom_site_symmetry_multiplicity
 _atom_site_fract_x
 _atom_site_fract_y
 _atom_site_fract_z
 _atom_site_fract_occupancy
 Al  Al1  1  -0.07595  -0.25037  0.02494  1
 P  P1  1  0.34901  0.74943  -0.12506  1
 P  P2  1  0.49912  0.74993  0.17495  1
