CIF file written using JARVIS-Tools package.
data_SrZrF6
_symmetry_space_group_name_H-M  'Cmme'
_cell_length_a       6.67842
_cell_length_b       6.67842
_cell_length_c       5.34014
_cell_angle_alpha    90
_cell_angle_beta     90
_cell_angle_gamma    110.639

_symmetry_Int_Tables_number  67
_chemical_formula_structural  SrZrF6
_chemical_formula_sum  Sr2Zr2F2
_cell_volume  222.8912070951484
_cell_formula_units_Z  2
loop_
  _symmetry_equiv_pos_site_id
 _symmetry_equiv_pos_as_xyz
 1  'x, y, z'
loop_
 _atom_site_type_symbol
 _atom_site_label
 _atom_site_symmetry_multiplicity
 _atom_site_fract_x
 _atom_site_fract_y
 _atom_site_fract_z
 _atom_site_fract_occupancy
 F  F1  1  0.68301  0.93993  0.26212  1
 F  F2  1  0.31699  0.06007  0.73788  1
 F  F3  1  0.81699  0.56007  0.26212  1
 F  F4  1  0.56007  0.81699  0.73788  1
 F  F5  1  0.18301  0.43993  0.73788  1
 F  F6  1  0.43993  0.18301  0.26212  1
 F  F7  1  0.93993  0.68301  0.73788  1
 F  F8  1  0.06007  0.31699  0.26212  1
 F  F9  1  0.42350  0.57650  0.15542  1
 F  F10  1  0.57650  0.42350  0.84458  1
 F  F11  1  0.07650  0.92350  0.15542  1
 F  F12  1  0.92350  0.07650  0.84458  1
 Sr  Sr1  1  0.25000  0.75000  0.45247  1
 Sr  Sr2  1  0.75000  0.25000  0.54753  1
 Zr  Zr1  1  0.75000  0.75000  0.00000  1
 Zr  Zr2  1  0.25000  0.25000  0.00000  1
