CIF file written using JARVIS-Tools package.
data_Al2P
_symmetry_space_group_name_H-M  'P1'
_cell_length_a       3.56167
_cell_length_b       3.72487
_cell_length_c       6.34671
_cell_angle_alpha    50.1916
_cell_angle_beta     106.244
_cell_angle_gamma    118.648

_symmetry_Int_Tables_number  1
_chemical_formula_structural  Al2P
_chemical_formula_sum  Al2P
_cell_volume  56.71749450560033
_cell_formula_units_Z  1
loop_
  _symmetry_equiv_pos_site_id
 _symmetry_equiv_pos_as_xyz
 1  'x, y, z'
loop_
 _atom_site_type_symbol
 _atom_site_label
 _atom_site_symmetry_multiplicity
 _atom_site_fract_x
 _atom_site_fract_y
 _atom_site_fract_z
 _atom_site_fract_occupancy
 Al  Al1  1  0.86405  0.56356  0.82003  1
 Al  Al2  1  0.58819  0.41904  0.41808  1
 P  P1  1  0.16209  0.90468  0.07809  1
