CIF file written using JARVIS-Tools package.
data_Al3P
_symmetry_space_group_name_H-M  'Cm'
_cell_length_a       5.94612
_cell_length_b       4.2538
_cell_length_c       5.94666
_cell_angle_alpha    112.001
_cell_angle_beta     117.75
_cell_angle_gamma    111.862

_symmetry_Int_Tables_number  8
_chemical_formula_structural  Al3P
_chemical_formula_sum  Al3P
_cell_volume  92.02087451338883
_cell_formula_units_Z  1
loop_
  _symmetry_equiv_pos_site_id
 _symmetry_equiv_pos_as_xyz
 1  'x, y, z'
loop_
 _atom_site_type_symbol
 _atom_site_label
 _atom_site_symmetry_multiplicity
 _atom_site_fract_x
 _atom_site_fract_y
 _atom_site_fract_z
 _atom_site_fract_occupancy
 Al  Al1  1  0.04040  0.19400  -0.00343  1
 Al  Al2  1  0.48136  0.19421  0.43744  1
 Al  Al3  1  0.40967  0.78285  0.65681  1
 P  P1  1  0.08280  0.57726  0.77840  1
