CIF file written using JARVIS-Tools package.
data_AlP3
_symmetry_space_group_name_H-M  'P1'
_cell_length_a       6.21677
_cell_length_b       3.84805
_cell_length_c       4.69052
_cell_angle_alpha    127.444
_cell_angle_beta     67.8881
_cell_angle_gamma    90.7734

_symmetry_Int_Tables_number  1
_chemical_formula_structural  AlP3
_chemical_formula_sum  AlP3
_cell_volume  78.91852462196164
_cell_formula_units_Z  1
loop_
  _symmetry_equiv_pos_site_id
 _symmetry_equiv_pos_as_xyz
 1  'x, y, z'
loop_
 _atom_site_type_symbol
 _atom_site_label
 _atom_site_symmetry_multiplicity
 _atom_site_fract_x
 _atom_site_fract_y
 _atom_site_fract_z
 _atom_site_fract_occupancy
 Al  Al1  1  0.90964  0.05960  0.94055  1
 P  P1  1  0.40947  0.56230  0.91411  1
 P  P2  1  0.16260  0.37572  0.25967  1
 P  P3  1  0.65669  0.74501  0.19782  1
