CIF file written using JARVIS-Tools package.
data_Rb3HoV2O8
_symmetry_space_group_name_H-M  'P-3m1'
_cell_length_a       6.00363
_cell_length_b       6.00364
_cell_length_c       7.81806
_cell_angle_alpha    90
_cell_angle_beta     90
_cell_angle_gamma    120

_symmetry_Int_Tables_number  164
_chemical_formula_structural  Rb3HoV2O8
_chemical_formula_sum  Rb3HoV2O8
_cell_volume  244.03804545562014
_cell_formula_units_Z  1
loop_
  _symmetry_equiv_pos_site_id
 _symmetry_equiv_pos_as_xyz
 1  'x, y, z'
loop_
 _atom_site_type_symbol
 _atom_site_label
 _atom_site_symmetry_multiplicity
 _atom_site_fract_x
 _atom_site_fract_y
 _atom_site_fract_z
 _atom_site_fract_occupancy
 Ho  Ho1  1  0.00000  0.00000  0.50000  1
 O  O1  1  0.33333  0.66667  0.03910  1
 O  O2  1  0.66667  0.33333  0.96090  1
 O  O3  1  0.17471  0.82529  0.32993  1
 O  O4  1  0.82529  0.17471  0.67007  1
 O  O5  1  0.17471  0.34941  0.32993  1
 O  O6  1  0.82529  0.65059  0.67007  1
 O  O7  1  0.65059  0.82529  0.32993  1
 O  O8  1  0.34941  0.17471  0.67007  1
 Rb  Rb1  1  0.33333  0.66667  0.69301  1
 Rb  Rb2  1  0.66667  0.33333  0.30699  1
 Rb  Rb3  1  0.00000  0.00000  0.00000  1
 V  V1  1  0.33333  0.66667  0.25298  1
 V  V2  1  0.66667  0.33333  0.74702  1
