CIF file written using JARVIS-Tools package.
data_Rb6CdO4
_symmetry_space_group_name_H-M  'P6_3mc'
_cell_length_a       9.11812
_cell_length_b       9.11812
_cell_length_c       6.91533
_cell_angle_alpha    90
_cell_angle_beta     90
_cell_angle_gamma    120

_symmetry_Int_Tables_number  186
_chemical_formula_structural  Rb6CdO4
_chemical_formula_sum  Rb2Cd2O8
_cell_volume  497.9135540333568
_cell_formula_units_Z  2
loop_
  _symmetry_equiv_pos_site_id
 _symmetry_equiv_pos_as_xyz
 1  'x, y, z'
loop_
 _atom_site_type_symbol
 _atom_site_label
 _atom_site_symmetry_multiplicity
 _atom_site_fract_x
 _atom_site_fract_y
 _atom_site_fract_z
 _atom_site_fract_occupancy
 Cd  Cd1  1  0.66667  0.33333  0.50741  1
 Cd  Cd2  1  0.33333  0.66667  0.00741  1
 O  O1  1  0.60914  0.80457  0.89835  1
 O  O2  1  0.19543  0.80457  0.89835  1
 O  O3  1  0.80457  0.60914  0.39835  1
 O  O4  1  0.80457  0.19543  0.39835  1
 O  O5  1  0.66667  0.33333  0.83079  1
 O  O6  1  0.33333  0.66667  0.33079  1
 O  O7  1  0.19543  0.39086  0.89835  1
 O  O8  1  0.39086  0.19543  0.39835  1
 Rb  Rb1  1  0.07466  0.53733  0.61376  1
 Rb  Rb2  1  0.53733  0.46267  0.11376  1
 Rb  Rb3  1  0.92534  0.46267  0.11376  1
 Rb  Rb4  1  0.46267  0.92534  0.61376  1
 Rb  Rb5  1  0.85814  0.71627  0.78315  1
 Rb  Rb6  1  0.14186  0.85814  0.28315  1
 Rb  Rb7  1  0.14186  0.28373  0.28315  1
 Rb  Rb8  1  0.85814  0.14186  0.78315  1
 Rb  Rb9  1  0.71627  0.85814  0.28315  1
 Rb  Rb10  1  0.28373  0.14186  0.78315  1
 Rb  Rb11  1  0.46267  0.53733  0.61376  1
 Rb  Rb12  1  0.53733  0.07466  0.11376  1
