CIF file written using JARVIS-Tools package.
data_Sm3Co8Sn4
_symmetry_space_group_name_H-M  'P6_3mc'
_cell_length_a       7.50794
_cell_length_b       8.92455
_cell_length_c       8.92455
_cell_angle_alpha    120
_cell_angle_beta     90
_cell_angle_gamma    90

_symmetry_Int_Tables_number  186
_chemical_formula_structural  Sm3Co8Sn4
_chemical_formula_sum  Sm6Co6Sn8
_cell_volume  517.8744030727066
_cell_formula_units_Z  2
loop_
  _symmetry_equiv_pos_site_id
 _symmetry_equiv_pos_as_xyz
 1  'x, y, z'
loop_
 _atom_site_type_symbol
 _atom_site_label
 _atom_site_symmetry_multiplicity
 _atom_site_fract_x
 _atom_site_fract_y
 _atom_site_fract_z
 _atom_site_fract_occupancy
 Co  Co1  1  0.26132  0.90384  0.09616  1
 Co  Co2  1  0.26132  0.19232  0.09616  1
 Co  Co3  1  0.57451  0.66667  0.33333  1
 Co  Co4  1  0.07451  0.33333  0.66667  1
 Co  Co5  1  0.76132  0.09616  0.19232  1
 Co  Co6  1  0.76132  0.09616  0.90384  1
 Co  Co7  1  0.50666  0.00000  0.00000  1
 Co  Co8  1  0.00666  0.00000  0.00000  1
 Co  Co9  1  0.45138  0.68486  0.84243  1
 Co  Co10  1  0.45138  0.15757  0.84243  1
 Co  Co11  1  0.95138  0.31514  0.15757  1
 Co  Co12  1  0.45138  0.15757  0.31514  1
 Co  Co13  1  0.95138  0.84243  0.15757  1
 Co  Co14  1  0.95138  0.84243  0.68486  1
 Co  Co15  1  0.26132  0.90384  0.80768  1
 Co  Co16  1  0.76132  0.80768  0.90384  1
 Sm  Sm1  1  0.78435  0.47101  0.94201  1
 Sm  Sm2  1  0.28435  0.94201  0.47101  1
 Sm  Sm3  1  0.28435  0.52899  0.47101  1
 Sm  Sm4  1  0.78435  0.05799  0.52899  1
 Sm  Sm5  1  0.28435  0.52899  0.05799  1
 Sm  Sm6  1  0.78435  0.47101  0.52899  1
 Sn  Sn1  1  0.08059  0.17023  0.82977  1
 Sn  Sn2  1  0.95102  0.66667  0.33333  1
 Sn  Sn3  1  0.45102  0.33333  0.66667  1
 Sn  Sn4  1  0.58059  0.82977  0.65954  1
 Sn  Sn5  1  0.58059  0.82977  0.17023  1
 Sn  Sn6  1  0.08059  0.17023  0.34046  1
 Sn  Sn7  1  0.58059  0.34046  0.17023  1
 Sn  Sn8  1  0.08059  0.65954  0.82977  1
