CIF file written using JARVIS-Tools package.
data_Na3P
_symmetry_space_group_name_H-M  'P-3m1'
_cell_length_a       5.03185
_cell_length_b       5.4739
_cell_length_c       5.02307
_cell_angle_alpha    89.863
_cell_angle_beta     60.0636
_cell_angle_gamma    89.1553

_symmetry_Int_Tables_number  164
_chemical_formula_structural  Na3P
_chemical_formula_sum  Na3P
_cell_volume  119.88030709209124
_cell_formula_units_Z  1
loop_
  _symmetry_equiv_pos_site_id
 _symmetry_equiv_pos_as_xyz
 1  'x, y, z'
loop_
 _atom_site_type_symbol
 _atom_site_label
 _atom_site_symmetry_multiplicity
 _atom_site_fract_x
 _atom_site_fract_y
 _atom_site_fract_z
 _atom_site_fract_occupancy
 Na  Na1  1  0.05188  -0.06324  0.11228  1
 Na  Na2  1  0.38607  0.37054  0.44527  1
 Na  Na3  1  0.72038  0.80429  0.77828  1
 P  P1  1  0.38617  0.87055  0.44527  1
