CIF file written using JARVIS-Tools package.
data_Rb2MoO2F4
_symmetry_space_group_name_H-M  'Cmc2_1'
_cell_length_a       7.65441
_cell_length_b       7.6544
_cell_length_c       7.07016
_cell_angle_alpha    90
_cell_angle_beta     90
_cell_angle_gamma    134.09

_symmetry_Int_Tables_number  36
_chemical_formula_structural  Rb2MoO2F4
_chemical_formula_sum  Rb4Mo2O4F8
_cell_volume  297.52772286116146
_cell_formula_units_Z  2
loop_
  _symmetry_equiv_pos_site_id
 _symmetry_equiv_pos_as_xyz
 1  'x, y, z'
loop_
 _atom_site_type_symbol
 _atom_site_label
 _atom_site_symmetry_multiplicity
 _atom_site_fract_x
 _atom_site_fract_y
 _atom_site_fract_z
 _atom_site_fract_occupancy
 F  F1  1  0.01831  0.98169  0.02374  1
 F  F2  1  0.34455  0.10588  0.70525  1
 F  F3  1  0.89412  0.65545  0.70525  1
 F  F4  1  0.10588  0.34455  0.20525  1
 F  F5  1  0.25413  0.74587  0.52699  1
 F  F6  1  0.74587  0.25413  0.02699  1
 F  F7  1  0.65545  0.89412  0.20525  1
 F  F8  1  0.98169  0.01831  0.52374  1
 Mo  Mo1  1  0.88364  0.11636  0.98292  1
 Mo  Mo2  1  0.11636  0.88364  0.48292  1
 O  O1  1  0.89495  0.65507  0.32904  1
 O  O2  1  0.65507  0.89495  0.82904  1
 O  O3  1  0.34493  0.10505  0.32904  1
 O  O4  1  0.10505  0.34493  0.82904  1
 Rb  Rb1  1  0.45407  0.54593  0.50574  1
 Rb  Rb2  1  0.54593  0.45407  0.00574  1
 Rb  Rb3  1  0.22625  0.77375  0.99803  1
 Rb  Rb4  1  0.77375  0.22625  0.49803  1
