CIF file written using JARVIS-Tools package.
data_NdZr3F15
_symmetry_space_group_name_H-M  'R3m'
_cell_length_a       7.43454
_cell_length_b       7.43454
_cell_length_c       7.43454
_cell_angle_alpha    112.747
_cell_angle_beta     112.747
_cell_angle_gamma    112.747

_symmetry_Int_Tables_number  160
_chemical_formula_structural  NdZr3F15
_chemical_formula_sum  NdZr3F5
_cell_volume  271.2913710326001
_cell_formula_units_Z  1
loop_
  _symmetry_equiv_pos_site_id
 _symmetry_equiv_pos_as_xyz
 1  'x, y, z'
loop_
 _atom_site_type_symbol
 _atom_site_label
 _atom_site_symmetry_multiplicity
 _atom_site_fract_x
 _atom_site_fract_y
 _atom_site_fract_z
 _atom_site_fract_occupancy
 F  F1  1  0.09661  0.09661  0.75598  1
 F  F2  1  0.65348  0.44111  0.11022  1
 F  F3  1  0.11022  0.65348  0.44111  1
 F  F4  1  0.11022  0.44111  0.65348  1
 F  F5  1  0.44111  0.11022  0.65348  1
 F  F6  1  0.44111  0.65348  0.11022  1
 F  F7  1  0.17658  0.17658  0.41753  1
 F  F8  1  0.65348  0.11022  0.44111  1
 F  F9  1  0.09661  0.75598  0.09661  1
 F  F10  1  0.41753  0.17658  0.17658  1
 F  F11  1  0.64021  0.85986  0.64021  1
 F  F12  1  0.64021  0.64021  0.85986  1
 F  F13  1  0.85986  0.64021  0.64021  1
 F  F14  1  0.17658  0.41753  0.17658  1
 F  F15  1  0.75598  0.09661  0.09661  1
 Nd  Nd1  1  0.99800  0.99800  0.99800  1
 Zr  Zr1  1  0.79328  0.36093  0.36093  1
 Zr  Zr2  1  0.36093  0.36093  0.79328  1
 Zr  Zr3  1  0.36093  0.79328  0.36093  1
