CIF file written using JARVIS-Tools package.
data_Pr2Al9Ir3
_symmetry_space_group_name_H-M  'Cmcm'
_cell_length_a       7.61478
_cell_length_b       7.61478
_cell_length_c       9.68264
_cell_angle_alpha    90
_cell_angle_beta     90
_cell_angle_gamma    119.463

_symmetry_Int_Tables_number  63
_chemical_formula_structural  Pr2Al9Ir3
_chemical_formula_sum  Pr4Al8Ir6
_cell_volume  488.8380002073609
_cell_formula_units_Z  2
loop_
  _symmetry_equiv_pos_site_id
 _symmetry_equiv_pos_as_xyz
 1  'x, y, z'
loop_
 _atom_site_type_symbol
 _atom_site_label
 _atom_site_symmetry_multiplicity
 _atom_site_fract_x
 _atom_site_fract_y
 _atom_site_fract_z
 _atom_site_fract_occupancy
 Al  Al1  1  0.66489  0.99697  0.57183  1
 Al  Al2  1  0.86852  0.86852  0.75000  1
 Al  Al3  1  0.00303  0.33511  0.07183  1
 Al  Al4  1  0.99697  0.66489  0.92817  1
 Al  Al5  1  0.99697  0.66489  0.57183  1
 Al  Al6  1  0.33511  0.00303  0.42817  1
 Al  Al7  1  0.00303  0.33511  0.42817  1
 Al  Al8  1  0.33511  0.00303  0.07183  1
 Al  Al9  1  0.33467  0.33467  0.54899  1
 Al  Al10  1  0.13148  0.13148  0.25000  1
 Al  Al11  1  0.66533  0.66533  0.45101  1
 Al  Al12  1  0.33467  0.33467  0.95101  1
 Al  Al13  1  0.33888  0.54524  0.25000  1
 Al  Al14  1  0.66112  0.45476  0.75000  1
 Al  Al15  1  0.54524  0.33888  0.25000  1
 Al  Al16  1  0.45476  0.66112  0.75000  1
 Al  Al17  1  0.66533  0.66533  0.04899  1
 Al  Al18  1  0.66489  0.99697  0.92817  1
 Ir  Ir1  1  0.00000  0.00000  0.00000  1
 Ir  Ir2  1  0.67061  0.32939  0.00000  1
 Ir  Ir3  1  0.32939  0.67061  0.00000  1
 Ir  Ir4  1  0.32939  0.67061  0.50000  1
 Ir  Ir5  1  0.00000  0.00000  0.50000  1
 Ir  Ir6  1  0.67061  0.32939  0.50000  1
 Pr  Pr1  1  0.32956  0.00448  0.75000  1
 Pr  Pr2  1  0.67044  0.99552  0.25000  1
 Pr  Pr3  1  0.00448  0.32956  0.75000  1
 Pr  Pr4  1  0.99552  0.67044  0.25000  1
