CIF file written using JARVIS-Tools package.
data_As2Br
_symmetry_space_group_name_H-M  'Cmmm'
_cell_length_a       7.42535
_cell_length_b       2.80019
_cell_length_c       3.74174
_cell_angle_alpha    90
_cell_angle_beta     104.512
_cell_angle_gamma    90

_symmetry_Int_Tables_number  65
_chemical_formula_structural  As2Br
_chemical_formula_sum  As2Br
_cell_volume  75.31764292733507
_cell_formula_units_Z  1
loop_
  _symmetry_equiv_pos_site_id
 _symmetry_equiv_pos_as_xyz
 1  'x, y, z'
loop_
 _atom_site_type_symbol
 _atom_site_label
 _atom_site_symmetry_multiplicity
 _atom_site_fract_x
 _atom_site_fract_y
 _atom_site_fract_z
 _atom_site_fract_occupancy
 As  As1  1  -0.15200  0.00000  -0.17552  1
 As  As2  1  0.08528  0.00000  0.44240  1
 Br  Br1  1  0.46672  0.00000  0.13312  1
