CIF file written using JARVIS-Tools package.
data_As2Br
_symmetry_space_group_name_H-M  'Pmmm'
_cell_length_a       5.41913
_cell_length_b       2.9524
_cell_length_c       5.70847
_cell_angle_alpha    90
_cell_angle_beta     90
_cell_angle_gamma    90

_symmetry_Int_Tables_number  47
_chemical_formula_structural  As2Br
_chemical_formula_sum  As2Br
_cell_volume  91.33241673578448
_cell_formula_units_Z  1
loop_
  _symmetry_equiv_pos_site_id
 _symmetry_equiv_pos_as_xyz
 1  'x, y, z'
loop_
 _atom_site_type_symbol
 _atom_site_label
 _atom_site_symmetry_multiplicity
 _atom_site_fract_x
 _atom_site_fract_y
 _atom_site_fract_z
 _atom_site_fract_occupancy
 As  As1  1  -0.03332  0.00000  0.78819  1
 As  As2  1  -0.03332  0.00000  0.21181  1
 Br  Br1  1  0.46664  0.00000  0.00000  1
