CIF file written using JARVIS-Tools package.
data_ArBi5
_symmetry_space_group_name_H-M  'P-3m1'
_cell_length_a       4.15356
_cell_length_b       4.15356
_cell_length_c       15.5457
_cell_angle_alpha    90
_cell_angle_beta     90
_cell_angle_gamma    120

_symmetry_Int_Tables_number  164
_chemical_formula_structural  ArBi5
_chemical_formula_sum  ArBi5
_cell_volume  232.26380143733553
_cell_formula_units_Z  1
loop_
  _symmetry_equiv_pos_site_id
 _symmetry_equiv_pos_as_xyz
 1  'x, y, z'
loop_
 _atom_site_type_symbol
 _atom_site_label
 _atom_site_symmetry_multiplicity
 _atom_site_fract_x
 _atom_site_fract_y
 _atom_site_fract_z
 _atom_site_fract_occupancy
 Ar  Ar1  1  0.00000  0.00000  0.25006  1
 Bi  Bi1  1  0.66667  0.33333  0.03213  1
 Bi  Bi2  1  0.66667  0.33333  0.59499  1
 Bi  Bi3  1  0.33333  0.66667  0.46786  1
 Bi  Bi4  1  0.33333  0.66667  0.90499  1
 Bi  Bi5  1  0.00000  0.00000  0.74997  1
