CIF file written using JARVIS-Tools package.
data_AsBr
_symmetry_space_group_name_H-M  'P-1'
_cell_length_a       7.40115
_cell_length_b       3.32269
_cell_length_c       5.62608
_cell_angle_alpha    106.978
_cell_angle_beta     118.701
_cell_angle_gamma    90.0198

_symmetry_Int_Tables_number  2
_chemical_formula_structural  AsBr
_chemical_formula_sum  As2Br2
_cell_volume  114.42525725504528
_cell_formula_units_Z  2
loop_
  _symmetry_equiv_pos_site_id
 _symmetry_equiv_pos_as_xyz
 1  'x, y, z'
loop_
 _atom_site_type_symbol
 _atom_site_label
 _atom_site_symmetry_multiplicity
 _atom_site_fract_x
 _atom_site_fract_y
 _atom_site_fract_z
 _atom_site_fract_occupancy
 As  As1  1  0.00756  0.28501  0.11803  1
 As  As2  1  0.62777  0.19788  -0.05737  1
 Br  Br1  1  0.09505  0.52930  0.60989  1
 Br  Br2  1  0.54030  0.95360  0.45077  1
