CIF file written using JARVIS-Tools package.
data_AgBi5
_symmetry_space_group_name_H-M  'P-3m1'
_cell_length_a       4.53683
_cell_length_b       4.53683
_cell_length_c       10.7404
_cell_angle_alpha    90
_cell_angle_beta     90
_cell_angle_gamma    120

_symmetry_Int_Tables_number  164
_chemical_formula_structural  AgBi5
_chemical_formula_sum  AgBi5
_cell_volume  191.45073221797355
_cell_formula_units_Z  1
loop_
  _symmetry_equiv_pos_site_id
 _symmetry_equiv_pos_as_xyz
 1  'x, y, z'
loop_
 _atom_site_type_symbol
 _atom_site_label
 _atom_site_symmetry_multiplicity
 _atom_site_fract_x
 _atom_site_fract_y
 _atom_site_fract_z
 _atom_site_fract_occupancy
 Ag  Ag1  1  0.00000  0.00000  0.24998  1
 Bi  Bi1  1  0.66667  0.33333  0.11468  1
 Bi  Bi2  1  0.66667  0.33333  0.56954  1
 Bi  Bi3  1  0.33333  0.66667  0.38537  1
 Bi  Bi4  1  0.33333  0.66667  0.93044  1
 Bi  Bi5  1  0.00000  0.00000  0.75000  1
