CIF file written using JARVIS-Tools package.
data_Nd4CdIr
_symmetry_space_group_name_H-M  'F-43m'
_cell_length_a       9.91508
_cell_length_b       9.91508
_cell_length_c       9.91508
_cell_angle_alpha    60
_cell_angle_beta     60
_cell_angle_gamma    60

_symmetry_Int_Tables_number  216
_chemical_formula_structural  Nd4CdIr
_chemical_formula_sum  Nd6Cd4Ir4
_cell_volume  689.2444348765331
_cell_formula_units_Z  4
loop_
  _symmetry_equiv_pos_site_id
 _symmetry_equiv_pos_as_xyz
 1  'x, y, z'
loop_
 _atom_site_type_symbol
 _atom_site_label
 _atom_site_symmetry_multiplicity
 _atom_site_fract_x
 _atom_site_fract_y
 _atom_site_fract_z
 _atom_site_fract_occupancy
 Cd  Cd1  1  0.25857  0.58048  0.58048  1
 Cd  Cd2  1  0.58048  0.25857  0.58048  1
 Cd  Cd3  1  0.58048  0.58048  0.25857  1
 Cd  Cd4  1  0.58048  0.58048  0.58048  1
 Ir  Ir1  1  0.57471  0.14176  0.14176  1
 Ir  Ir2  1  0.14176  0.14176  0.14176  1
 Ir  Ir3  1  0.14176  0.57471  0.14176  1
 Ir  Ir4  1  0.14176  0.14176  0.57471  1
 Nd  Nd1  1  0.80933  0.19067  0.80933  1
 Nd  Nd2  1  0.34903  0.34903  0.95290  1
 Nd  Nd3  1  0.34903  0.95290  0.34903  1
 Nd  Nd4  1  0.95290  0.34903  0.34903  1
 Nd  Nd5  1  0.34903  0.34903  0.34903  1
 Nd  Nd6  1  0.19067  0.80933  0.19067  1
 Nd  Nd7  1  0.56168  0.93832  0.93832  1
 Nd  Nd8  1  0.19067  0.19067  0.80933  1
 Nd  Nd9  1  0.80933  0.80933  0.19067  1
 Nd  Nd10  1  0.93832  0.56168  0.56168  1
 Nd  Nd11  1  0.56168  0.93832  0.56168  1
 Nd  Nd12  1  0.93832  0.56168  0.93832  1
 Nd  Nd13  1  0.56168  0.56168  0.93832  1
 Nd  Nd14  1  0.93832  0.93832  0.56168  1
 Nd  Nd15  1  0.19067  0.80933  0.80933  1
 Nd  Nd16  1  0.80933  0.19067  0.19067  1
