CIF file written using JARVIS-Tools package.
data_Na3Sm2Si2Se6
_symmetry_space_group_name_H-M  'C2/m'
_cell_length_a       7.23288
_cell_length_b       7.23288
_cell_length_c       7.66329
_cell_angle_alpha    78.2095
_cell_angle_beta     78.2095
_cell_angle_gamma    114.091

_symmetry_Int_Tables_number  12
_chemical_formula_structural  Na3Sm2Si2Se6
_chemical_formula_sum  Na3Sm2Si2Se6
_cell_volume  339.18141330410236
_cell_formula_units_Z  1
loop_
  _symmetry_equiv_pos_site_id
 _symmetry_equiv_pos_as_xyz
 1  'x, y, z'
loop_
 _atom_site_type_symbol
 _atom_site_label
 _atom_site_symmetry_multiplicity
 _atom_site_fract_x
 _atom_site_fract_y
 _atom_site_fract_z
 _atom_site_fract_occupancy
 Na  Na1  1  0.00000  0.00000  0.00000  1
 Na  Na2  1  0.65838  0.34162  0.00000  1
 Na  Na3  1  0.34162  0.65838  -0.00000  1
 Se  Se1  1  0.21078  0.21078  0.23910  1
 Se  Se2  1  0.78922  0.78922  0.76090  1
 Se  Se3  1  0.59229  0.92430  0.27225  1
 Se  Se4  1  0.40771  0.07570  0.72775  1
 Se  Se5  1  0.07570  0.40771  0.72775  1
 Se  Se6  1  0.92430  0.59229  0.27225  1
 Si  Si1  1  0.56505  0.56505  0.33086  1
 Si  Si2  1  0.43495  0.43495  0.66914  1
 Sm  Sm1  1  0.83647  0.16353  0.50000  1
 Sm  Sm2  1  0.16353  0.83647  0.50000  1
