CIF file written using JARVIS-Tools package.
data_Bi5N
_symmetry_space_group_name_H-M  'P3m1'
_cell_length_a       4.17272
_cell_length_b       4.17272
_cell_length_c       11.6876
_cell_angle_alpha    90
_cell_angle_beta     90
_cell_angle_gamma    120

_symmetry_Int_Tables_number  156
_chemical_formula_structural  Bi5N
_chemical_formula_sum  Bi5N
_cell_volume  176.23562868494474
_cell_formula_units_Z  1
loop_
  _symmetry_equiv_pos_site_id
 _symmetry_equiv_pos_as_xyz
 1  'x, y, z'
loop_
 _atom_site_type_symbol
 _atom_site_label
 _atom_site_symmetry_multiplicity
 _atom_site_fract_x
 _atom_site_fract_y
 _atom_site_fract_z
 _atom_site_fract_occupancy
 Bi  Bi1  1  0.66667  0.33333  0.15296  1
 Bi  Bi2  1  0.66667  0.33333  0.54511  1
 Bi  Bi3  1  0.33333  0.66667  0.38271  1
 Bi  Bi4  1  0.33333  0.66667  0.93117  1
 Bi  Bi5  1  0.00000  0.00000  0.77144  1
 N  N1  1  0.00000  0.00000  0.21660  1
