CIF file written using JARVIS-Tools package.
data_Bi5I
_symmetry_space_group_name_H-M  'P-3m1'
_cell_length_a       4.40761
_cell_length_b       4.40761
_cell_length_c       12.8943
_cell_angle_alpha    90
_cell_angle_beta     90
_cell_angle_gamma    120

_symmetry_Int_Tables_number  164
_chemical_formula_structural  Bi5I
_chemical_formula_sum  Bi5I
_cell_volume  216.9370558247537
_cell_formula_units_Z  1
loop_
  _symmetry_equiv_pos_site_id
 _symmetry_equiv_pos_as_xyz
 1  'x, y, z'
loop_
 _atom_site_type_symbol
 _atom_site_label
 _atom_site_symmetry_multiplicity
 _atom_site_fract_x
 _atom_site_fract_y
 _atom_site_fract_z
 _atom_site_fract_occupancy
 Bi  Bi1  1  0.66667  0.33333  0.06318  1
 Bi  Bi2  1  0.66667  0.33333  0.58369  1
 Bi  Bi3  1  0.33333  0.66667  0.43682  1
 Bi  Bi4  1  0.33333  0.66667  0.91631  1
 Bi  Bi5  1  0.00000  0.00000  0.75000  1
 I  I1  1  0.00000  0.00000  0.25000  1
