CIF file written using JARVIS-Tools package.
data_Bi5C
_symmetry_space_group_name_H-M  'P3m1'
_cell_length_a       4.03395
_cell_length_b       4.03395
_cell_length_c       12.4891
_cell_angle_alpha    90
_cell_angle_beta     90
_cell_angle_gamma    120

_symmetry_Int_Tables_number  156
_chemical_formula_structural  Bi5C
_chemical_formula_sum  Bi5C
_cell_volume  176.00255887211407
_cell_formula_units_Z  1
loop_
  _symmetry_equiv_pos_site_id
 _symmetry_equiv_pos_as_xyz
 1  'x, y, z'
loop_
 _atom_site_type_symbol
 _atom_site_label
 _atom_site_symmetry_multiplicity
 _atom_site_fract_x
 _atom_site_fract_y
 _atom_site_fract_z
 _atom_site_fract_occupancy
 Bi  Bi1  1  0.66667  0.33333  0.15137  1
 Bi  Bi2  1  0.66667  0.33333  0.54467  1
 Bi  Bi3  1  0.33333  0.66667  0.37435  1
 Bi  Bi4  1  0.33333  0.66667  0.92859  1
 Bi  Bi5  1  0.00000  0.00000  0.76922  1
 C  C1  1  0.00000  0.00000  0.23180  1
