CIF file written using JARVIS-Tools package.
data_As2Br
_symmetry_space_group_name_H-M  'C2/m'
_cell_length_a       6.05205
_cell_length_b       3.83022
_cell_length_c       6.5574
_cell_angle_alpha    30.0486
_cell_angle_beta     95.7905
_cell_angle_gamma    99.9161

_symmetry_Int_Tables_number  12
_chemical_formula_structural  As2Br
_chemical_formula_sum  As2Br
_cell_volume  74.61869268717828
_cell_formula_units_Z  1
loop_
  _symmetry_equiv_pos_site_id
 _symmetry_equiv_pos_as_xyz
 1  'x, y, z'
loop_
 _atom_site_type_symbol
 _atom_site_label
 _atom_site_symmetry_multiplicity
 _atom_site_fract_x
 _atom_site_fract_y
 _atom_site_fract_z
 _atom_site_fract_occupancy
 As  As1  1  0.73168  0.09468  0.24295  1
 As  As2  1  0.50605  0.96205  0.62053  1
 Br  Br1  1  0.11894  0.02815  0.93180  1
