CIF file written using JARVIS-Tools package.
data_NaCeC2O6
_symmetry_space_group_name_H-M  'Pmc2_1'
_cell_length_a       5.17417
_cell_length_b       6.41319
_cell_length_c       7.09416
_cell_angle_alpha    90
_cell_angle_beta     90
_cell_angle_gamma    90

_symmetry_Int_Tables_number  26
_chemical_formula_structural  NaCeC2O6
_chemical_formula_sum  Na2Ce2C4O2
_cell_volume  235.4050085859454
_cell_formula_units_Z  2
loop_
  _symmetry_equiv_pos_site_id
 _symmetry_equiv_pos_as_xyz
 1  'x, y, z'
loop_
 _atom_site_type_symbol
 _atom_site_label
 _atom_site_symmetry_multiplicity
 _atom_site_fract_x
 _atom_site_fract_y
 _atom_site_fract_z
 _atom_site_fract_occupancy
 C  C1  1  0.50000  0.58696  0.24519  1
 C  C2  1  0.50000  0.41304  0.74519  1
 C  C3  1  0.00000  0.03407  0.99652  1
 C  C4  1  0.00000  0.96593  0.49652  1
 Ce  Ce1  1  0.50000  0.13433  0.32568  1
 Ce  Ce2  1  0.50000  0.86567  0.82568  1
 Na  Na1  1  0.00000  0.48116  0.03025  1
 Na  Na2  1  0.00000  0.51884  0.53025  1
 O  O1  1  0.00000  0.14570  0.41356  1
 O  O2  1  0.50000  0.22950  0.66563  1
 O  O3  1  0.28679  0.49087  0.28257  1
 O  O4  1  0.71321  0.50913  0.78257  1
 O  O5  1  0.00000  0.85430  0.91356  1
 O  O6  1  0.21975  0.87597  0.53201  1
 O  O7  1  0.21975  0.12403  0.03201  1
 O  O8  1  0.78025  0.87597  0.53201  1
 O  O9  1  0.28679  0.50913  0.78257  1
 O  O10  1  0.78025  0.12403  0.03201  1
 O  O11  1  0.71321  0.49087  0.28257  1
 O  O12  1  0.50000  0.77050  0.16563  1
