CIF file written using JARVIS-Tools package.
data_Bi5Pd
_symmetry_space_group_name_H-M  'P-3m1'
_cell_length_a       4.46044
_cell_length_b       4.46044
_cell_length_c       10.6923
_cell_angle_alpha    90
_cell_angle_beta     90
_cell_angle_gamma    120

_symmetry_Int_Tables_number  164
_chemical_formula_structural  Bi5Pd
_chemical_formula_sum  Bi5Pd
_cell_volume  184.22924309409746
_cell_formula_units_Z  1
loop_
  _symmetry_equiv_pos_site_id
 _symmetry_equiv_pos_as_xyz
 1  'x, y, z'
loop_
 _atom_site_type_symbol
 _atom_site_label
 _atom_site_symmetry_multiplicity
 _atom_site_fract_x
 _atom_site_fract_y
 _atom_site_fract_z
 _atom_site_fract_occupancy
 Bi  Bi1  1  0.66667  0.33333  0.12903  1
 Bi  Bi2  1  0.66667  0.33333  0.56632  1
 Bi  Bi3  1  0.33333  0.66667  0.37098  1
 Bi  Bi4  1  0.33333  0.66667  0.93369  1
 Bi  Bi5  1  0.00000  0.00000  0.75000  1
 Pd  Pd1  1  0.00000  0.00000  0.24998  1
