CIF file written using JARVIS-Tools package.
data_Nd12Ni6Pb
_symmetry_space_group_name_H-M  'Im-3'
_cell_length_a       8.6727
_cell_length_b       8.6727
_cell_length_c       8.6727
_cell_angle_alpha    109.471
_cell_angle_beta     109.471
_cell_angle_gamma    109.471

_symmetry_Int_Tables_number  204
_chemical_formula_structural  Nd12Ni6Pb
_chemical_formula_sum  Nd2Ni6Pb
_cell_volume  502.1579430463152
_cell_formula_units_Z  1
loop_
  _symmetry_equiv_pos_site_id
 _symmetry_equiv_pos_as_xyz
 1  'x, y, z'
loop_
 _atom_site_type_symbol
 _atom_site_label
 _atom_site_symmetry_multiplicity
 _atom_site_fract_x
 _atom_site_fract_y
 _atom_site_fract_z
 _atom_site_fract_occupancy
 Nd  Nd1  1  0.81339  0.69352  0.50691  1
 Nd  Nd2  1  0.30648  0.49309  0.18661  1
 Nd  Nd3  1  0.18661  0.30648  0.49309  1
 Nd  Nd4  1  0.81339  0.30648  0.11986  1
 Nd  Nd5  1  0.69352  0.50691  0.81339  1
 Nd  Nd6  1  0.49309  0.18661  0.30648  1
 Nd  Nd7  1  0.18661  0.69352  0.88014  1
 Nd  Nd8  1  0.30648  0.11986  0.81339  1
 Nd  Nd9  1  0.50691  0.81339  0.69352  1
 Nd  Nd10  1  0.11986  0.81339  0.30648  1
 Nd  Nd11  1  0.88014  0.18661  0.69352  1
 Nd  Nd12  1  0.69352  0.88014  0.18661  1
 Ni  Ni1  1  0.50000  0.87807  0.37807  1
 Ni  Ni2  1  0.50000  0.12193  0.62193  1
 Ni  Ni3  1  0.87807  0.37807  0.50000  1
 Ni  Ni4  1  0.12193  0.62193  0.50000  1
 Ni  Ni5  1  0.37807  0.50000  0.87807  1
 Ni  Ni6  1  0.62193  0.50000  0.12193  1
 Pb  Pb1  1  0.00000  0.00000  0.00000  1
