CIF file written using JARVIS-Tools package.
data_RbBi5
_symmetry_space_group_name_H-M  'P-3m1'
_cell_length_a       4.43043
_cell_length_b       4.43043
_cell_length_c       13.6277
_cell_angle_alpha    90
_cell_angle_beta     90
_cell_angle_gamma    120

_symmetry_Int_Tables_number  164
_chemical_formula_structural  RbBi5
_chemical_formula_sum  RbBi5
_cell_volume  231.65697018863526
_cell_formula_units_Z  1
loop_
  _symmetry_equiv_pos_site_id
 _symmetry_equiv_pos_as_xyz
 1  'x, y, z'
loop_
 _atom_site_type_symbol
 _atom_site_label
 _atom_site_symmetry_multiplicity
 _atom_site_fract_x
 _atom_site_fract_y
 _atom_site_fract_z
 _atom_site_fract_occupancy
 Bi  Bi1  1  0.66667  0.33333  0.04327  1
 Bi  Bi2  1  0.66667  0.33333  0.59337  1
 Bi  Bi3  1  0.33333  0.66667  0.45672  1
 Bi  Bi4  1  0.33333  0.66667  0.90666  1
 Bi  Bi5  1  0.00000  0.00000  0.75000  1
 Rb  Rb1  1  0.00000  0.00000  0.24998  1
