CIF file written using JARVIS-Tools package.
data_SrBi5
_symmetry_space_group_name_H-M  'P-3m1'
_cell_length_a       4.56659
_cell_length_b       4.56659
_cell_length_c       12.14
_cell_angle_alpha    90
_cell_angle_beta     90
_cell_angle_gamma    120

_symmetry_Int_Tables_number  164
_chemical_formula_structural  SrBi5
_chemical_formula_sum  SrBi5
_cell_volume  219.24732495850066
_cell_formula_units_Z  1
loop_
  _symmetry_equiv_pos_site_id
 _symmetry_equiv_pos_as_xyz
 1  'x, y, z'
loop_
 _atom_site_type_symbol
 _atom_site_label
 _atom_site_symmetry_multiplicity
 _atom_site_fract_x
 _atom_site_fract_y
 _atom_site_fract_z
 _atom_site_fract_occupancy
 Bi  Bi1  1  0.66667  0.33333  0.06706  1
 Bi  Bi2  1  0.66667  0.33333  0.58534  1
 Bi  Bi3  1  0.33333  0.66667  0.43294  1
 Bi  Bi4  1  0.33333  0.66667  0.91466  1
 Bi  Bi5  1  0.00000  0.00000  0.75001  1
 Sr  Sr1  1  0.00000  0.00000  0.24999  1
