CIF file written using JARVIS-Tools package.
data_YbBi5
_symmetry_space_group_name_H-M  'P-3m1'
_cell_length_a       4.53672
_cell_length_b       4.53672
_cell_length_c       11.6849
_cell_angle_alpha    90
_cell_angle_beta     90
_cell_angle_gamma    120

_symmetry_Int_Tables_number  164
_chemical_formula_structural  YbBi5
_chemical_formula_sum  YbBi5
_cell_volume  208.27495565989375
_cell_formula_units_Z  1
loop_
  _symmetry_equiv_pos_site_id
 _symmetry_equiv_pos_as_xyz
 1  'x, y, z'
loop_
 _atom_site_type_symbol
 _atom_site_label
 _atom_site_symmetry_multiplicity
 _atom_site_fract_x
 _atom_site_fract_y
 _atom_site_fract_z
 _atom_site_fract_occupancy
 Bi  Bi1  1  0.66667  0.33333  0.08294  1
 Bi  Bi2  1  0.66667  0.33333  0.57804  1
 Bi  Bi3  1  0.33333  0.66667  0.41707  1
 Bi  Bi4  1  0.33333  0.66667  0.92196  1
 Bi  Bi5  1  0.00000  0.00000  0.75001  1
 Yb  Yb1  1  0.00000  0.00000  0.24999  1
