CIF file written using JARVIS-Tools package.
data_AsH3
_symmetry_space_group_name_H-M  'P1'
_cell_length_a       2.77625
_cell_length_b       4.33465
_cell_length_c       4.38072
_cell_angle_alpha    67.4117
_cell_angle_beta     108.029
_cell_angle_gamma    108.078

_symmetry_Int_Tables_number  1
_chemical_formula_structural  AsH3
_chemical_formula_sum  AsH3
_cell_volume  45.17038140590343
_cell_formula_units_Z  1
loop_
  _symmetry_equiv_pos_site_id
 _symmetry_equiv_pos_as_xyz
 1  'x, y, z'
loop_
 _atom_site_type_symbol
 _atom_site_label
 _atom_site_symmetry_multiplicity
 _atom_site_fract_x
 _atom_site_fract_y
 _atom_site_fract_z
 _atom_site_fract_occupancy
 As  As1  1  0.07369  0.38892  0.15152  1
 H  H1  1  0.85036  0.15602  0.92657  1
 H  H2  1  0.05587  0.95744  0.54307  1
 H  H3  1  0.05514  0.77951  0.72030  1
