CIF file written using JARVIS-Tools package.
data_LiMn2TeO6
_symmetry_space_group_name_H-M  'P1'
_cell_length_a       4.94566
_cell_length_b       5.15549
_cell_length_c       8.55806
_cell_angle_alpha    90.2461
_cell_angle_beta     91.0125
_cell_angle_gamma    87.0891

_symmetry_Int_Tables_number  1
_chemical_formula_structural  LiMn2TeO6
_chemical_formula_sum  Li2Mn4Te2O2
_cell_volume  217.89083814759766
_cell_formula_units_Z  2
loop_
  _symmetry_equiv_pos_site_id
 _symmetry_equiv_pos_as_xyz
 1  'x, y, z'
loop_
 _atom_site_type_symbol
 _atom_site_label
 _atom_site_symmetry_multiplicity
 _atom_site_fract_x
 _atom_site_fract_y
 _atom_site_fract_z
 _atom_site_fract_occupancy
 Li  Li1  1  0.51512  0.49856  0.90915  1
 Li  Li2  1  0.56649  0.90287  0.19851  1
 Mn  Mn1  1  0.50518  0.98928  0.67354  1
 Mn  Mn2  1  0.02172  -0.00290  0.36802  1
 Mn  Mn3  1  0.01554  0.49632  0.77957  1
 Mn  Mn4  1  0.00504  0.50381  0.18530  1
 O  O1  1  0.21420  0.80013  0.20523  1
 O  O2  1  0.81164  0.69735  0.33891  1
 O  O3  1  0.70842  0.66760  0.66772  1
 O  O4  1  0.27510  0.85658  0.51589  1
 O  O5  1  0.21885  0.29137  0.32896  1
 O  O6  1  0.75374  0.17274  0.83512  1
 O  O7  1  0.81306  0.18528  0.19158  1
 O  O8  1  0.31444  0.32085  0.66091  1
 O  O9  1  0.19337  0.36437  0.00068  1
 O  O10  1  0.25480  0.82241  0.82308  1
 O  O11  1  0.77872  0.68791  0.02855  1
 O  O12  1  0.75510  0.14647  0.51676  1
 Te  Te1  1  0.01422  0.00500  0.98739  1
 Te  Te2  1  0.51487  0.48160  0.47961  1
