CIF file written using JARVIS-Tools package.
data_LiNdMo2O8
_symmetry_space_group_name_H-M  'P2/c'
_cell_length_a       5.93939
_cell_length_b       5.02568
_cell_length_c       10.9906
_cell_angle_alpha    68.6652
_cell_angle_beta     90
_cell_angle_gamma    90

_symmetry_Int_Tables_number  13
_chemical_formula_structural  LiNdMo2O8
_chemical_formula_sum  Li2Nd2Mo4O6
_cell_volume  305.58248334197697
_cell_formula_units_Z  2
loop_
  _symmetry_equiv_pos_site_id
 _symmetry_equiv_pos_as_xyz
 1  'x, y, z'
loop_
 _atom_site_type_symbol
 _atom_site_label
 _atom_site_symmetry_multiplicity
 _atom_site_fract_x
 _atom_site_fract_y
 _atom_site_fract_z
 _atom_site_fract_occupancy
 Li  Li1  1  0.78827  0.00000  0.75000  1
 Li  Li2  1  0.21173  0.00000  0.25000  1
 Mo  Mo1  1  0.81619  0.73493  0.52711  1
 Mo  Mo2  1  0.18381  0.26507  0.47289  1
 Mo  Mo3  1  0.81619  0.26507  0.97289  1
 Mo  Mo4  1  0.18381  0.73493  0.02711  1
 Nd  Nd1  1  0.28804  0.50000  0.75000  1
 Nd  Nd2  1  0.71196  0.50000  0.25000  1
 O  O1  1  0.89447  0.87471  0.09427  1
 O  O2  1  0.10553  0.12529  0.90573  1
 O  O3  1  0.89447  0.12529  0.40573  1
 O  O4  1  0.63426  0.21055  0.85682  1
 O  O5  1  0.37161  0.69945  0.90881  1
 O  O6  1  0.62839  0.30055  0.09119  1
 O  O7  1  0.10553  0.87471  0.59427  1
 O  O8  1  0.92613  0.37535  0.61941  1
 O  O9  1  0.92613  0.62465  0.88059  1
 O  O10  1  0.07387  0.37535  0.11941  1
 O  O11  1  0.37161  0.30055  0.59119  1
 O  O12  1  0.07387  0.62465  0.38059  1
 O  O13  1  0.63426  0.78945  0.64318  1
 O  O14  1  0.36574  0.21055  0.35682  1
 O  O15  1  0.62839  0.69945  0.40881  1
 O  O16  1  0.36574  0.78945  0.14318  1
