CIF file written using JARVIS-Tools package.
data_LiAuF4
_symmetry_space_group_name_H-M  'Cmmm'
_cell_length_a       4.58932
_cell_length_b       3.5066
_cell_length_c       4.59247
_cell_angle_alpha    90
_cell_angle_beta     91.0918
_cell_angle_gamma    90

_symmetry_Int_Tables_number  65
_chemical_formula_structural  LiAuF4
_chemical_formula_sum  LiAuF4
_cell_volume  73.89275233306614
_cell_formula_units_Z  1
loop_
  _symmetry_equiv_pos_site_id
 _symmetry_equiv_pos_as_xyz
 1  'x, y, z'
loop_
 _atom_site_type_symbol
 _atom_site_label
 _atom_site_symmetry_multiplicity
 _atom_site_fract_x
 _atom_site_fract_y
 _atom_site_fract_z
 _atom_site_fract_occupancy
 Au  Au1  1  0.00000  0.00000  0.00000  1
 F  F1  1  0.69335  0.00000  0.69272  1
 F  F2  1  0.20782  0.50000  0.79282  1
 F  F3  1  0.79218  0.50000  0.20718  1
 F  F4  1  0.30665  0.00000  0.30728  1
 Li  Li1  1  0.50000  0.50000  0.50000  1
