CIF file written using JARVIS-Tools package.
data_LiAuF4
_symmetry_space_group_name_H-M  'C2/m'
_cell_length_a       3.8453
_cell_length_b       3.85358
_cell_length_c       4.92456
_cell_angle_alpha    91.1252
_cell_angle_beta     91.0306
_cell_angle_gamma    88.2996

_symmetry_Int_Tables_number  12
_chemical_formula_structural  LiAuF4
_chemical_formula_sum  LiAuF4
_cell_volume  72.91550273439923
_cell_formula_units_Z  1
loop_
  _symmetry_equiv_pos_site_id
 _symmetry_equiv_pos_as_xyz
 1  'x, y, z'
loop_
 _atom_site_type_symbol
 _atom_site_label
 _atom_site_symmetry_multiplicity
 _atom_site_fract_x
 _atom_site_fract_y
 _atom_site_fract_z
 _atom_site_fract_occupancy
 Au  Au1  1  0.00000  0.00000  0.00000  1
 F  F1  1  0.37718  0.88449  0.25906  1
 F  F2  1  0.88391  0.37812  0.25808  1
 F  F3  1  0.62282  0.11551  0.74094  1
 F  F4  1  0.11609  0.62188  0.74192  1
 Li  Li1  1  0.50000  0.50000  0.50000  1
