CIF file written using JARVIS-Tools package.
data_TbKMo2O8
_symmetry_space_group_name_H-M  'C2/c'
_cell_length_a       7.40275
_cell_length_b       7.40275
_cell_length_c       7.75165
_cell_angle_alpha    61.7756
_cell_angle_beta     61.7757
_cell_angle_gamma    88.0544

_symmetry_Int_Tables_number  15
_chemical_formula_structural  TbKMo2O8
_chemical_formula_sum  Tb2K2Mo4O6
_cell_volume  319.7891332918037
_cell_formula_units_Z  2
loop_
  _symmetry_equiv_pos_site_id
 _symmetry_equiv_pos_as_xyz
 1  'x, y, z'
loop_
 _atom_site_type_symbol
 _atom_site_label
 _atom_site_symmetry_multiplicity
 _atom_site_fract_x
 _atom_site_fract_y
 _atom_site_fract_z
 _atom_site_fract_occupancy
 K  K1  1  0.19573  0.80427  0.75000  1
 K  K2  1  0.80427  0.19573  0.25000  1
 Mo  Mo1  1  0.69284  0.69908  0.75803  1
 Mo  Mo2  1  0.30716  0.30092  0.24197  1
 Mo  Mo3  1  0.30092  0.30716  0.74197  1
 Mo  Mo4  1  0.69908  0.69284  0.25803  1
 O  O1  1  0.63448  0.41846  0.52707  1
 O  O2  1  0.60768  0.77500  0.56220  1
 O  O3  1  0.39232  0.22500  0.43780  1
 O  O4  1  0.22500  0.39232  0.93780  1
 O  O5  1  0.04986  0.19830  0.80906  1
 O  O6  1  0.39032  0.07399  0.87444  1
 O  O7  1  0.60968  0.92601  0.12556  1
 O  O8  1  0.77500  0.60768  0.06220  1
 O  O9  1  0.95014  0.80170  0.19094  1
 O  O10  1  0.58154  0.36552  0.97293  1
 O  O11  1  0.41846  0.63448  0.02707  1
 O  O12  1  0.92601  0.60968  0.62556  1
 O  O13  1  0.36552  0.58154  0.47293  1
 O  O14  1  0.80170  0.95014  0.69094  1
 O  O15  1  0.19830  0.04986  0.30906  1
 O  O16  1  0.07399  0.39032  0.37444  1
 Tb  Tb1  1  0.22973  0.77027  0.25000  1
 Tb  Tb2  1  0.77027  0.22973  0.75000  1
