CIF file written using JARVIS-Tools package.
data_AuOF2
_symmetry_space_group_name_H-M  'Immm'
_cell_length_a       4.82833
_cell_length_b       4.82833
_cell_length_c       4.82833
_cell_angle_alpha    138.42
_cell_angle_beta     64.5483
_cell_angle_gamma    132.978

_symmetry_Int_Tables_number  71
_chemical_formula_structural  AuOF2
_chemical_formula_sum  AuOF2
_cell_volume  53.903484480812466
_cell_formula_units_Z  1
loop_
  _symmetry_equiv_pos_site_id
 _symmetry_equiv_pos_as_xyz
 1  'x, y, z'
loop_
 _atom_site_type_symbol
 _atom_site_label
 _atom_site_symmetry_multiplicity
 _atom_site_fract_x
 _atom_site_fract_y
 _atom_site_fract_z
 _atom_site_fract_occupancy
 Au  Au1  1  0.50165  0.00165  0.50000  1
 F  F1  1  0.34093  0.50164  0.83929  1
 F  F2  1  0.66235  0.50164  0.16071  1
 O  O1  1  0.00165  0.50165  0.50000  1
