CIF file written using JARVIS-Tools package.
data_KV2AgO6
_symmetry_space_group_name_H-M  'C2/c'
_cell_length_a       7.30771
_cell_length_b       7.30771
_cell_length_c       5.82941
_cell_angle_alpha    80.136
_cell_angle_beta     80.136
_cell_angle_gamma    85.8681

_symmetry_Int_Tables_number  15
_chemical_formula_structural  KV2AgO6
_chemical_formula_sum  K2V4Ag2O2
_cell_volume  301.87732717939474
_cell_formula_units_Z  2
loop_
  _symmetry_equiv_pos_site_id
 _symmetry_equiv_pos_as_xyz
 1  'x, y, z'
loop_
 _atom_site_type_symbol
 _atom_site_label
 _atom_site_symmetry_multiplicity
 _atom_site_fract_x
 _atom_site_fract_y
 _atom_site_fract_z
 _atom_site_fract_occupancy
 Ag  Ag1  1  0.40427  0.59573  0.75000  1
 Ag  Ag2  1  0.59573  0.40427  0.25000  1
 K  K1  1  0.80200  0.19800  0.75000  1
 K  K2  1  0.19800  0.80200  0.25000  1
 O  O1  1  0.83295  0.86701  0.51405  1
 O  O2  1  0.08751  0.60238  0.70762  1
 O  O3  1  0.13299  0.16705  0.98595  1
 O  O4  1  0.86701  0.83295  0.01405  1
 O  O5  1  0.16705  0.13299  0.48595  1
 O  O6  1  0.54305  0.71362  0.34239  1
 O  O7  1  0.71362  0.54305  0.84239  1
 O  O8  1  0.39762  0.91249  0.79238  1
 O  O9  1  0.45695  0.28638  0.65761  1
 O  O10  1  0.60238  0.08751  0.20762  1
 O  O11  1  0.28638  0.45695  0.15761  1
 O  O12  1  0.91249  0.39762  0.29238  1
 V  V1  1  0.12334  0.29707  0.22713  1
 V  V2  1  0.87666  0.70293  0.77287  1
 V  V3  1  0.70293  0.87666  0.27287  1
 V  V4  1  0.29707  0.12334  0.72713  1
