CIF file written using JARVIS-Tools package.
data_KSbCl6
_symmetry_space_group_name_H-M  'C2/c'
_cell_length_a       6.7085
_cell_length_b       6.70849
_cell_length_c       11.8214
_cell_angle_alpha    81.0412
_cell_angle_beta     81.0412
_cell_angle_gamma    55.2338

_symmetry_Int_Tables_number  15
_chemical_formula_structural  KSbCl6
_chemical_formula_sum  K2Sb2Cl2
_cell_volume  430.2337432252158
_cell_formula_units_Z  2
loop_
  _symmetry_equiv_pos_site_id
 _symmetry_equiv_pos_as_xyz
 1  'x, y, z'
loop_
 _atom_site_type_symbol
 _atom_site_label
 _atom_site_symmetry_multiplicity
 _atom_site_fract_x
 _atom_site_fract_y
 _atom_site_fract_z
 _atom_site_fract_occupancy
 Cl  Cl1  1  0.47028  0.67975  0.61157  1
 Cl  Cl2  1  0.52972  0.32025  0.38843  1
 Cl  Cl3  1  0.32025  0.52972  0.88843  1
 Cl  Cl4  1  0.67975  0.47028  0.11157  1
 Cl  Cl5  1  0.38787  0.20355  0.67360  1
 Cl  Cl6  1  0.61213  0.79645  0.32640  1
 Cl  Cl7  1  0.79645  0.61213  0.82640  1
 Cl  Cl8  1  0.20355  0.38787  0.17360  1
 Cl  Cl9  1  0.78460  0.92630  0.03185  1
 Cl  Cl10  1  0.21540  0.07370  0.96815  1
 Cl  Cl11  1  0.07370  0.21540  0.46815  1
 Cl  Cl12  1  0.92630  0.78460  0.53185  1
 K  K1  1  0.91922  0.08078  0.75000  1
 K  K2  1  0.08078  0.91922  0.25000  1
 Sb  Sb1  1  0.50000  -0.00000  0.50000  1
 Sb  Sb2  1  0.00000  0.50000  -0.00000  1
