CIF file written using JARVIS-Tools package.
data_KMg2P2O8
_symmetry_space_group_name_H-M  'C2/c'
_cell_length_a       9.53404
_cell_length_b       9.53404
_cell_length_c       9.5814
_cell_angle_alpha    60.1189
_cell_angle_beta     60.1189
_cell_angle_gamma    33.4253

_symmetry_Int_Tables_number  15
_chemical_formula_structural  KMg2P2O8
_chemical_formula_sum  K2Mg4P4O6
_cell_volume  409.7357625430211
_cell_formula_units_Z  2
loop_
  _symmetry_equiv_pos_site_id
 _symmetry_equiv_pos_as_xyz
 1  'x, y, z'
loop_
 _atom_site_type_symbol
 _atom_site_label
 _atom_site_symmetry_multiplicity
 _atom_site_fract_x
 _atom_site_fract_y
 _atom_site_fract_z
 _atom_site_fract_occupancy
 K  K1  1  0.74381  0.25619  0.75000  1
 K  K2  1  0.25619  0.74381  0.25000  1
 Mg  Mg1  1  0.54894  0.15985  0.56058  1
 Mg  Mg2  1  0.45106  0.84015  0.43942  1
 Mg  Mg3  1  0.84015  0.45106  0.93942  1
 Mg  Mg4  1  0.15985  0.54894  0.06058  1
 O  O1  1  0.35778  0.83640  0.67243  1
 O  O2  1  0.64222  0.16360  0.32757  1
 O  O3  1  0.97303  0.56366  0.82100  1
 O  O4  1  0.83640  0.35778  0.17243  1
 O  O5  1  0.83526  0.95917  0.64691  1
 O  O6  1  0.16474  0.04083  0.35309  1
 O  O7  1  0.16360  0.64222  0.82757  1
 O  O8  1  0.95917  0.83526  0.14691  1
 O  O9  1  0.51758  0.28141  0.07692  1
 O  O10  1  0.43634  0.02697  0.67900  1
 O  O11  1  0.71859  0.48242  0.42308  1
 O  O12  1  0.04083  0.16474  0.85309  1
 O  O13  1  0.56366  0.97303  0.32100  1
 O  O14  1  0.48242  0.71859  0.92308  1
 O  O15  1  0.28141  0.51758  0.57692  1
 O  O16  1  0.02697  0.43634  0.17900  1
 P  P1  1  0.67084  0.06241  0.21814  1
 P  P2  1  0.32916  0.93759  0.78186  1
 P  P3  1  0.06241  0.67084  0.71814  1
 P  P4  1  0.93759  0.32916  0.28186  1
