CIF file written using JARVIS-Tools package.
data_LiAu2O3
_symmetry_space_group_name_H-M  'Cmmm'
_cell_length_a       6.5217
_cell_length_b       6.5217
_cell_length_c       3.09301
_cell_angle_alpha    90
_cell_angle_beta     90
_cell_angle_gamma    141.936

_symmetry_Int_Tables_number  65
_chemical_formula_structural  LiAu2O3
_chemical_formula_sum  LiAu2O3
_cell_volume  81.10760630397445
_cell_formula_units_Z  1
loop_
  _symmetry_equiv_pos_site_id
 _symmetry_equiv_pos_as_xyz
 1  'x, y, z'
loop_
 _atom_site_type_symbol
 _atom_site_label
 _atom_site_symmetry_multiplicity
 _atom_site_fract_x
 _atom_site_fract_y
 _atom_site_fract_z
 _atom_site_fract_occupancy
 Au  Au1  1  0.66179  0.33821  0.00000  1
 Au  Au2  1  0.33821  0.66179  0.00000  1
 Li  Li1  1  0.00000  0.00000  0.50000  1
 O  O1  1  0.83059  0.16941  0.00000  1
 O  O2  1  0.50000  0.50000  0.00000  1
 O  O3  1  0.16941  0.83059  0.00000  1
