CIF file written using JARVIS-Tools package.
data_K2RbYV2O8
_symmetry_space_group_name_H-M  'P-3m1'
_cell_length_a       5.95437
_cell_length_b       5.95438
_cell_length_c       7.62368
_cell_angle_alpha    90
_cell_angle_beta     90
_cell_angle_gamma    120

_symmetry_Int_Tables_number  164
_chemical_formula_structural  K2RbYV2O8
_chemical_formula_sum  K2RbYV2O8
_cell_volume  234.08164414840812
_cell_formula_units_Z  1
loop_
  _symmetry_equiv_pos_site_id
 _symmetry_equiv_pos_as_xyz
 1  'x, y, z'
loop_
 _atom_site_type_symbol
 _atom_site_label
 _atom_site_symmetry_multiplicity
 _atom_site_fract_x
 _atom_site_fract_y
 _atom_site_fract_z
 _atom_site_fract_occupancy
 K  K1  1  0.33333  0.66667  0.68459  1
 K  K2  1  0.66667  0.33333  0.31541  1
 O  O1  1  0.33333  0.66667  0.02262  1
 O  O2  1  0.66667  0.33333  0.97738  1
 O  O3  1  0.17466  0.82534  0.32412  1
 O  O4  1  0.82534  0.17466  0.67588  1
 O  O5  1  0.17466  0.34933  0.32412  1
 O  O6  1  0.82534  0.65067  0.67588  1
 O  O7  1  0.65067  0.82534  0.32412  1
 O  O8  1  0.34933  0.17466  0.67588  1
 Rb  Rb1  1  0.00000  0.00000  0.00000  1
 V  V1  1  0.33333  0.66667  0.24209  1
 V  V2  1  0.66667  0.33333  0.75791  1
 Y  Y1  1  0.00000  0.00000  0.50000  1
