CIF file written using JARVIS-Tools package.
data_HfNiAs
_symmetry_space_group_name_H-M  'Pnma'
_cell_length_a       3.86757
_cell_length_b       6.44157
_cell_length_c       7.33962
_cell_angle_alpha    90
_cell_angle_beta     90
_cell_angle_gamma    90

_symmetry_Int_Tables_number  62
_chemical_formula_structural  HfNiAs
_chemical_formula_sum  Hf4Ni4As4
_cell_volume  182.85340010329233
_cell_formula_units_Z  4
loop_
  _symmetry_equiv_pos_site_id
 _symmetry_equiv_pos_as_xyz
 1  'x, y, z'
loop_
 _atom_site_type_symbol
 _atom_site_label
 _atom_site_symmetry_multiplicity
 _atom_site_fract_x
 _atom_site_fract_y
 _atom_site_fract_z
 _atom_site_fract_occupancy
 As  As1  1  0.25000  0.71837  0.60735  1
 As  As2  1  0.75000  0.28163  0.39265  1
 As  As3  1  0.75000  0.78163  0.10735  1
 As  As4  1  0.25000  0.21837  0.89265  1
 Hf  Hf1  1  0.25000  0.48567  0.18595  1
 Hf  Hf2  1  0.75000  0.51433  0.81405  1
 Hf  Hf3  1  0.75000  0.01433  0.68595  1
 Hf  Hf4  1  0.25000  0.98567  0.31405  1
 Ni  Ni1  1  0.25000  0.83263  0.92413  1
 Ni  Ni2  1  0.75000  0.16737  0.07587  1
 Ni  Ni3  1  0.75000  0.66737  0.42413  1
 Ni  Ni4  1  0.25000  0.33263  0.57587  1
