CIF file written using JARVIS-Tools package.
data_RbAuS
_symmetry_space_group_name_H-M  'Cmcm'
_cell_length_a       5.21784
_cell_length_b       5.21784
_cell_length_c       6.7004
_cell_angle_alpha    90
_cell_angle_beta     90
_cell_angle_gamma    101.982

_symmetry_Int_Tables_number  63
_chemical_formula_structural  RbAuS
_chemical_formula_sum  Rb2Au2S2
_cell_volume  178.44982717284927
_cell_formula_units_Z  2
loop_
  _symmetry_equiv_pos_site_id
 _symmetry_equiv_pos_as_xyz
 1  'x, y, z'
loop_
 _atom_site_type_symbol
 _atom_site_label
 _atom_site_symmetry_multiplicity
 _atom_site_fract_x
 _atom_site_fract_y
 _atom_site_fract_z
 _atom_site_fract_occupancy
 Au  Au1  1  0.00000  0.00000  0.50000  1
 Au  Au2  1  0.00000  0.00000  0.00000  1
 Rb  Rb1  1  0.62401  0.37599  0.75000  1
 Rb  Rb2  1  0.37599  0.62401  0.25000  1
 S  S1  1  0.20227  0.79773  0.75000  1
 S  S2  1  0.79773  0.20227  0.25000  1
