CIF file written using JARVIS-Tools package.
data_Ho3Co8Sn4
_symmetry_space_group_name_H-M  'P6_3mc'
_cell_length_a       7.4145
_cell_length_b       8.82257
_cell_length_c       8.82258
_cell_angle_alpha    120
_cell_angle_beta     90
_cell_angle_gamma    90

_symmetry_Int_Tables_number  186
_chemical_formula_structural  Ho3Co8Sn4
_chemical_formula_sum  Ho6Co6Sn8
_cell_volume  499.80790695448985
_cell_formula_units_Z  2
loop_
  _symmetry_equiv_pos_site_id
 _symmetry_equiv_pos_as_xyz
 1  'x, y, z'
loop_
 _atom_site_type_symbol
 _atom_site_label
 _atom_site_symmetry_multiplicity
 _atom_site_fract_x
 _atom_site_fract_y
 _atom_site_fract_z
 _atom_site_fract_occupancy
 Co  Co1  1  0.26182  0.90151  0.09849  1
 Co  Co2  1  0.26182  0.19699  0.09849  1
 Co  Co3  1  0.56497  0.66667  0.33333  1
 Co  Co4  1  0.06497  0.33333  0.66667  1
 Co  Co5  1  0.76182  0.09849  0.19699  1
 Co  Co6  1  0.76182  0.09849  0.90151  1
 Co  Co7  1  0.50665  0.00000  0.00000  1
 Co  Co8  1  0.00665  0.00000  0.00000  1
 Co  Co9  1  0.45135  0.68042  0.84021  1
 Co  Co10  1  0.45135  0.15979  0.84021  1
 Co  Co11  1  0.95135  0.31958  0.15979  1
 Co  Co12  1  0.45135  0.15979  0.31958  1
 Co  Co13  1  0.95135  0.84021  0.15979  1
 Co  Co14  1  0.95135  0.84021  0.68042  1
 Co  Co15  1  0.26182  0.90151  0.80301  1
 Co  Co16  1  0.76182  0.80301  0.90151  1
 Ho  Ho1  1  0.78532  0.46995  0.93991  1
 Ho  Ho2  1  0.28532  0.93991  0.46995  1
 Ho  Ho3  1  0.28532  0.53005  0.46995  1
 Ho  Ho4  1  0.78532  0.06009  0.53005  1
 Ho  Ho5  1  0.28532  0.53005  0.06009  1
 Ho  Ho6  1  0.78532  0.46995  0.53005  1
 Sn  Sn1  1  0.08208  0.17136  0.82864  1
 Sn  Sn2  1  0.95175  0.66667  0.33333  1
 Sn  Sn3  1  0.45175  0.33333  0.66667  1
 Sn  Sn4  1  0.58208  0.82864  0.65729  1
 Sn  Sn5  1  0.58208  0.82864  0.17136  1
 Sn  Sn6  1  0.08208  0.17136  0.34271  1
 Sn  Sn7  1  0.58208  0.34271  0.17136  1
 Sn  Sn8  1  0.08208  0.65729  0.82864  1
