CIF file written using JARVIS-Tools package.
data_Li3Co8O4F12
_symmetry_space_group_name_H-M  'Cm'
_cell_length_a       5.95941
_cell_length_b       5.95941
_cell_length_c       10.319
_cell_angle_alpha    71.9086
_cell_angle_beta     71.9086
_cell_angle_gamma    58.8972

_symmetry_Int_Tables_number  8
_chemical_formula_structural  Li3Co8O4F12
_chemical_formula_sum  Li3Co8O4F2
_cell_volume  293.1612788898331
_cell_formula_units_Z  1
loop_
  _symmetry_equiv_pos_site_id
 _symmetry_equiv_pos_as_xyz
 1  'x, y, z'
loop_
 _atom_site_type_symbol
 _atom_site_label
 _atom_site_symmetry_multiplicity
 _atom_site_fract_x
 _atom_site_fract_y
 _atom_site_fract_z
 _atom_site_fract_occupancy
 Co  Co1  1  0.74587  0.27533  0.24141  1
 Co  Co2  1  0.02256  0.46609  0.00619  1
 Co  Co3  1  0.46609  0.02256  0.00619  1
 Co  Co4  1  0.27493  0.73966  0.73994  1
 Co  Co5  1  0.25614  0.25614  0.72839  1
 Co  Co6  1  0.73966  0.27493  0.73994  1
 Co  Co7  1  0.27533  0.74587  0.24141  1
 Co  Co8  1  0.73133  0.73133  0.26660  1
 F  F1  1  0.88962  0.35426  0.87946  1
 F  F2  1  0.35426  0.88962  0.87946  1
 F  F3  1  0.10667  0.64004  0.12843  1
 F  F4  1  0.63866  0.63866  0.62058  1
 F  F5  1  0.86968  0.36295  0.37546  1
 F  F6  1  0.64004  0.10667  0.12843  1
 F  F7  1  0.37856  0.37856  0.36042  1
 F  F8  1  0.87523  0.87523  0.89011  1
 F  F9  1  0.36295  0.86968  0.37546  1
 F  F10  1  0.87599  0.87599  0.35922  1
 F  F11  1  0.63118  0.13210  0.62679  1
 F  F12  1  0.13210  0.63118  0.62679  1
 Li  Li1  1  0.99469  0.99469  0.00165  1
 Li  Li2  1  0.18188  0.18188  0.44864  1
 Li  Li3  1  0.82840  0.82840  0.55473  1
 O  O1  1  0.11154  0.11154  0.13012  1
 O  O2  1  0.64739  0.64739  0.12133  1
 O  O3  1  0.11194  0.11194  0.65321  1
 O  O4  1  0.36860  0.36860  0.85991  1
