CIF file written using JARVIS-Tools package.
data_SmHO2
_symmetry_space_group_name_H-M  'Pnma'
_cell_length_a       3.6658
_cell_length_b       5.2006
_cell_length_c       11.0048
_cell_angle_alpha    90
_cell_angle_beta     90
_cell_angle_gamma    90

_symmetry_Int_Tables_number  62
_chemical_formula_structural  SmHO2
_chemical_formula_sum  Sm4H4O8
_cell_volume  209.79994806915684
_cell_formula_units_Z  4
loop_
  _symmetry_equiv_pos_site_id
 _symmetry_equiv_pos_as_xyz
 1  'x, y, z'
loop_
 _atom_site_type_symbol
 _atom_site_label
 _atom_site_symmetry_multiplicity
 _atom_site_fract_x
 _atom_site_fract_y
 _atom_site_fract_z
 _atom_site_fract_occupancy
 H  H1  1  0.25000  0.15143  0.60241  1
 H  H2  1  0.25000  0.34857  0.10241  1
 H  H3  1  0.75000  0.65143  0.89759  1
 H  H4  1  0.75000  0.84857  0.39759  1
 O  O1  1  0.25000  0.16526  0.07338  1
 O  O2  1  0.75000  0.13348  0.31410  1
 O  O3  1  0.75000  0.36652  0.81410  1
 O  O4  1  0.25000  0.33474  0.57338  1
 O  O5  1  0.75000  0.66526  0.42662  1
 O  O6  1  0.25000  0.63348  0.18590  1
 O  O7  1  0.25000  0.86652  0.68590  1
 O  O8  1  0.75000  0.83474  0.92662  1
 Sm  Sm1  1  0.25000  0.11970  0.85551  1
 Sm  Sm2  1  0.25000  0.38030  0.35551  1
 Sm  Sm3  1  0.75000  0.61970  0.64449  1
 Sm  Sm4  1  0.75000  0.88030  0.14449  1
