CIF file written using JARVIS-Tools package.
data_Dy3Co2Si3
_symmetry_space_group_name_H-M  'Cmcm'
_cell_length_a       5.5847
_cell_length_b       5.5847
_cell_length_c       13.6079
_cell_angle_alpha    90
_cell_angle_beta     90
_cell_angle_gamma    137.058

_symmetry_Int_Tables_number  63
_chemical_formula_structural  Dy3Co2Si3
_chemical_formula_sum  Dy6Co4Si6
_cell_volume  289.13607375011804
_cell_formula_units_Z  2
loop_
  _symmetry_equiv_pos_site_id
 _symmetry_equiv_pos_as_xyz
 1  'x, y, z'
loop_
 _atom_site_type_symbol
 _atom_site_label
 _atom_site_symmetry_multiplicity
 _atom_site_fract_x
 _atom_site_fract_y
 _atom_site_fract_z
 _atom_site_fract_occupancy
 Co  Co1  1  0.78588  0.21412  0.58192  1
 Co  Co2  1  0.21412  0.78588  0.41808  1
 Co  Co3  1  0.21412  0.78588  0.08192  1
 Co  Co4  1  0.78588  0.21412  0.91808  1
 Dy  Dy1  1  0.63852  0.36148  0.25000  1
 Dy  Dy2  1  0.36148  0.63852  0.75000  1
 Dy  Dy3  1  0.91948  0.08052  0.11170  1
 Dy  Dy4  1  0.08052  0.91948  0.88830  1
 Dy  Dy5  1  0.08052  0.91948  0.61170  1
 Dy  Dy6  1  0.91948  0.08052  0.38830  1
 Si  Si1  1  0.33235  0.66765  0.25000  1
 Si  Si2  1  0.66765  0.33235  0.75000  1
 Si  Si3  1  0.62168  0.37832  0.04027  1
 Si  Si4  1  0.37832  0.62168  0.95973  1
 Si  Si5  1  0.37832  0.62168  0.54027  1
 Si  Si6  1  0.62168  0.37832  0.45973  1
