CIF file written using JARVIS-Tools package.
data_Ca2GaSi2O7
_symmetry_space_group_name_H-M  'P-42_1m'
_cell_length_a       7.95561
_cell_length_b       7.95561
_cell_length_c       5.05643
_cell_angle_alpha    90
_cell_angle_beta     90
_cell_angle_gamma    90

_symmetry_Int_Tables_number  113
_chemical_formula_structural  Ca2GaSi2O7
_chemical_formula_sum  Ca4Ga2Si4O4
_cell_volume  320.03014882918137
_cell_formula_units_Z  2
loop_
  _symmetry_equiv_pos_site_id
 _symmetry_equiv_pos_as_xyz
 1  'x, y, z'
loop_
 _atom_site_type_symbol
 _atom_site_label
 _atom_site_symmetry_multiplicity
 _atom_site_fract_x
 _atom_site_fract_y
 _atom_site_fract_z
 _atom_site_fract_occupancy
 Ca  Ca1  1  0.16828  0.33172  0.49901  1
 Ca  Ca2  1  0.83172  0.66828  0.49901  1
 Ca  Ca3  1  0.66828  0.16828  0.50099  1
 Ca  Ca4  1  0.33172  0.83172  0.50099  1
 Ga  Ga1  1  0.00000  0.00000  0.00000  1
 Ga  Ga2  1  0.50000  0.50000  0.00000  1
 O  O1  1  0.08145  0.81201  0.22811  1
 O  O2  1  0.14188  0.64188  0.74915  1
 O  O3  1  0.18799  0.08145  0.77189  1
 O  O4  1  0.41855  0.31201  0.77189  1
 O  O5  1  0.81201  0.91855  0.77189  1
 O  O6  1  0.91855  0.18799  0.22811  1
 O  O7  1  0.31201  0.58145  0.22811  1
 O  O8  1  0.68799  0.41855  0.22811  1
 O  O9  1  0.64188  0.85812  0.25085  1
 O  O10  1  0.50000  0.00000  0.81499  1
 O  O11  1  0.58145  0.68799  0.77189  1
 O  O12  1  0.35812  0.14188  0.25085  1
 O  O13  1  0.00000  0.50000  0.18501  1
 O  O14  1  0.85812  0.35812  0.74915  1
 Si  Si1  1  0.86010  0.36010  0.06749  1
 Si  Si2  1  0.13990  0.63990  0.06749  1
 Si  Si3  1  0.36010  0.13990  0.93251  1
 Si  Si4  1  0.63990  0.86010  0.93251  1
