CIF file written using JARVIS-Tools package.
data_Dy3P6Pd20
_symmetry_space_group_name_H-M  'Fm-3m'
_cell_length_a       8.67898
_cell_length_b       8.67898
_cell_length_c       8.67898
_cell_angle_alpha    60
_cell_angle_beta     60
_cell_angle_gamma    60

_symmetry_Int_Tables_number  225
_chemical_formula_structural  Dy3P6Pd20
_chemical_formula_sum  Dy3P6Pd20
_cell_volume  462.2650098678555
_cell_formula_units_Z  1
loop_
  _symmetry_equiv_pos_site_id
 _symmetry_equiv_pos_as_xyz
 1  'x, y, z'
loop_
 _atom_site_type_symbol
 _atom_site_label
 _atom_site_symmetry_multiplicity
 _atom_site_fract_x
 _atom_site_fract_y
 _atom_site_fract_z
 _atom_site_fract_occupancy
 Dy  Dy1  1  0.25000  0.25000  0.25000  1
 Dy  Dy2  1  0.75000  0.75000  0.75000  1
 Dy  Dy3  1  0.00000  0.00000  0.00000  1
 P  P1  1  0.73654  0.26346  0.26346  1
 P  P2  1  0.26346  0.73654  0.73654  1
 P  P3  1  0.26346  0.73654  0.26346  1
 P  P4  1  0.73654  0.26346  0.73654  1
 P  P5  1  0.26346  0.26346  0.73654  1
 P  P6  1  0.73654  0.73654  0.26346  1
 Pd  Pd1  1  0.15144  0.61619  0.61619  1
 Pd  Pd2  1  0.38381  0.38381  0.38381  1
 Pd  Pd3  1  0.61619  0.61619  0.61619  1
 Pd  Pd4  1  0.38381  0.38381  0.84856  1
 Pd  Pd5  1  0.38381  0.84856  0.38381  1
 Pd  Pd6  1  0.61619  0.61619  0.15144  1
 Pd  Pd7  1  0.65443  0.34557  0.00000  1
 Pd  Pd8  1  0.84856  0.38381  0.38381  1
 Pd  Pd9  1  0.61619  0.15144  0.61619  1
 Pd  Pd10  1  0.65443  0.00000  0.34557  1
 Pd  Pd11  1  0.00000  0.65443  0.34557  1
 Pd  Pd12  1  0.00000  0.34557  0.00000  1
 Pd  Pd13  1  0.34557  0.00000  0.00000  1
 Pd  Pd14  1  0.00000  0.65443  0.00000  1
 Pd  Pd15  1  0.34557  0.00000  0.65443  1
 Pd  Pd16  1  0.00000  0.00000  0.34557  1
 Pd  Pd17  1  0.00000  0.00000  0.65443  1
 Pd  Pd18  1  0.00000  0.34557  0.65443  1
 Pd  Pd19  1  0.65443  0.00000  0.00000  1
 Pd  Pd20  1  0.34557  0.65443  0.00000  1
