CIF file written using JARVIS-Tools package.
data_TaIn3O7
_symmetry_space_group_name_H-M  'P-1'
_cell_length_a       6.27117
_cell_length_b       6.2813
_cell_length_c       7.46618
_cell_angle_alpha    106.433
_cell_angle_beta     89.3303
_cell_angle_gamma    98.425

_symmetry_Int_Tables_number  2
_chemical_formula_structural  TaIn3O7
_chemical_formula_sum  Ta2In6O4
_cell_volume  278.90558849424235
_cell_formula_units_Z  2
loop_
  _symmetry_equiv_pos_site_id
 _symmetry_equiv_pos_as_xyz
 1  'x, y, z'
loop_
 _atom_site_type_symbol
 _atom_site_label
 _atom_site_symmetry_multiplicity
 _atom_site_fract_x
 _atom_site_fract_y
 _atom_site_fract_z
 _atom_site_fract_occupancy
 In  In1  1  0.72804  0.46932  0.11885  1
 In  In2  1  0.73881  0.45477  0.60486  1
 In  In3  1  0.53435  0.99368  0.75422  1
 In  In4  1  0.46565  0.00632  0.24578  1
 In  In5  1  0.26119  0.54523  0.39514  1
 In  In6  1  0.27196  0.53068  0.88115  1
 O  O1  1  0.09336  0.04852  0.26326  1
 O  O2  1  0.70795  0.05667  0.47011  1
 O  O3  1  0.89990  0.67775  0.96630  1
 O  O4  1  0.10010  0.32225  0.03370  1
 O  O5  1  0.93191  0.64303  0.38871  1
 O  O6  1  0.90664  0.95148  0.73674  1
 O  O7  1  0.70995  0.09047  0.05830  1
 O  O8  1  0.29205  0.94333  0.52989  1
 O  O9  1  0.47853  0.64408  0.66123  1
 O  O10  1  0.43842  0.65975  0.16836  1
 O  O11  1  0.56158  0.34025  0.83164  1
 O  O12  1  0.06809  0.35697  0.61129  1
 O  O13  1  0.29005  0.90953  0.94170  1
 O  O14  1  0.52147  0.35592  0.33877  1
 Ta  Ta1  1  0.00000  0.00000  0.50000  1
 Ta  Ta2  1  0.00000  0.00000  0.00000  1
