CIF file written using JARVIS-Tools package.
data_Ba2LaCoCu2O7
_symmetry_space_group_name_H-M  'Pmmm'
_cell_length_a       3.94158
_cell_length_b       3.94493
_cell_length_c       11.8177
_cell_angle_alpha    90
_cell_angle_beta     90
_cell_angle_gamma    90

_symmetry_Int_Tables_number  47
_chemical_formula_structural  Ba2LaCoCu2O7
_chemical_formula_sum  Ba2LaCoCu2O7
_cell_volume  183.75609395561148
_cell_formula_units_Z  1
loop_
  _symmetry_equiv_pos_site_id
 _symmetry_equiv_pos_as_xyz
 1  'x, y, z'
loop_
 _atom_site_type_symbol
 _atom_site_label
 _atom_site_symmetry_multiplicity
 _atom_site_fract_x
 _atom_site_fract_y
 _atom_site_fract_z
 _atom_site_fract_occupancy
 Ba  Ba1  1  0.50000  0.50000  0.18331  1
 Ba  Ba2  1  0.50000  0.50000  0.81669  1
 Co  Co1  1  0.00000  0.00000  0.00000  1
 Cu  Cu1  1  0.00000  0.00000  0.35336  1
 Cu  Cu2  1  0.00000  0.00000  0.64664  1
 La  La1  1  0.50000  0.50000  0.50000  1
 O  O1  1  0.50000  0.00000  0.36542  1
 O  O2  1  0.50000  0.00000  0.63458  1
 O  O3  1  0.00000  0.00000  0.15025  1
 O  O4  1  0.00000  0.00000  0.84975  1
 O  O5  1  0.00000  0.50000  0.36697  1
 O  O6  1  0.00000  0.50000  0.63303  1
 O  O7  1  0.00000  0.50000  0.00000  1
