CIF file written using JARVIS-Tools package.
data_BaSiPd
_symmetry_space_group_name_H-M  'P2_13'
_cell_length_a       6.73025
_cell_length_b       6.73025
_cell_length_c       6.73025
_cell_angle_alpha    90
_cell_angle_beta     90
_cell_angle_gamma    90

_symmetry_Int_Tables_number  198
_chemical_formula_structural  BaSiPd
_chemical_formula_sum  Ba4Si4Pd4
_cell_volume  304.8547964336721
_cell_formula_units_Z  4
loop_
  _symmetry_equiv_pos_site_id
 _symmetry_equiv_pos_as_xyz
 1  'x, y, z'
loop_
 _atom_site_type_symbol
 _atom_site_label
 _atom_site_symmetry_multiplicity
 _atom_site_fract_x
 _atom_site_fract_y
 _atom_site_fract_z
 _atom_site_fract_occupancy
 Ba  Ba1  1  0.36650  0.86650  0.63350  1
 Ba  Ba2  1  0.86650  0.63350  0.36650  1
 Ba  Ba3  1  0.63350  0.36650  0.86650  1
 Ba  Ba4  1  0.13350  0.13350  0.13350  1
 Pd  Pd1  1  0.09298  0.59298  0.90702  1
 Pd  Pd2  1  0.59298  0.90702  0.09298  1
 Pd  Pd3  1  0.90702  0.09298  0.59298  1
 Pd  Pd4  1  0.40702  0.40702  0.40702  1
 Si  Si1  1  0.65729  0.15729  0.34271  1
 Si  Si2  1  0.15729  0.34271  0.65729  1
 Si  Si3  1  0.34271  0.65729  0.15729  1
 Si  Si4  1  0.84271  0.84271  0.84271  1
