CIF file written using JARVIS-Tools package.
data_Ba3CdSi2O8
_symmetry_space_group_name_H-M  'P-3m1'
_cell_length_a       5.77417
_cell_length_b       5.77417
_cell_length_c       7.44477
_cell_angle_alpha    90
_cell_angle_beta     90
_cell_angle_gamma    120

_symmetry_Int_Tables_number  164
_chemical_formula_structural  Ba3CdSi2O8
_chemical_formula_sum  Ba3CdSi2O8
_cell_volume  214.96137192456197
_cell_formula_units_Z  1
loop_
  _symmetry_equiv_pos_site_id
 _symmetry_equiv_pos_as_xyz
 1  'x, y, z'
loop_
 _atom_site_type_symbol
 _atom_site_label
 _atom_site_symmetry_multiplicity
 _atom_site_fract_x
 _atom_site_fract_y
 _atom_site_fract_z
 _atom_site_fract_occupancy
 Ba  Ba1  1  0.33333  0.66667  0.66771  1
 Ba  Ba2  1  0.66667  0.33333  0.33229  1
 Ba  Ba3  1  0.00000  0.00000  0.00000  1
 Cd  Cd1  1  0.00000  0.00000  0.50000  1
 O  O1  1  0.33333  0.66667  0.00433  1
 O  O2  1  0.66667  0.33333  0.99567  1
 O  O3  1  0.17918  0.82082  0.30483  1
 O  O4  1  0.82082  0.17918  0.69517  1
 O  O5  1  0.17918  0.35836  0.30483  1
 O  O6  1  0.82082  0.64164  0.69517  1
 O  O7  1  0.64164  0.82082  0.30483  1
 O  O8  1  0.35836  0.17918  0.69517  1
 Si  Si1  1  0.33333  0.66667  0.22101  1
 Si  Si2  1  0.66667  0.33333  0.77899  1
