CIF file written using JARVIS-Tools package.
data_Ba2ErZn2CuO7
_symmetry_space_group_name_H-M  'Pmmm'
_cell_length_a       3.87863
_cell_length_b       3.98378
_cell_length_c       11.5339
_cell_angle_alpha    90
_cell_angle_beta     90
_cell_angle_gamma    90

_symmetry_Int_Tables_number  47
_chemical_formula_structural  Ba2ErZn2CuO7
_chemical_formula_sum  Ba2ErZn2CuO7
_cell_volume  178.21769171203204
_cell_formula_units_Z  1
loop_
  _symmetry_equiv_pos_site_id
 _symmetry_equiv_pos_as_xyz
 1  'x, y, z'
loop_
 _atom_site_type_symbol
 _atom_site_label
 _atom_site_symmetry_multiplicity
 _atom_site_fract_x
 _atom_site_fract_y
 _atom_site_fract_z
 _atom_site_fract_occupancy
 Ba  Ba1  1  0.50000  0.50000  0.18049  1
 Ba  Ba2  1  0.50000  0.50000  0.81951  1
 Cu  Cu1  1  0.00000  0.00000  0.00000  1
 Er  Er1  1  0.50000  0.50000  0.50000  1
 O  O1  1  0.50000  0.00000  0.38044  1
 O  O2  1  0.50000  0.00000  0.61956  1
 O  O3  1  0.00000  0.50000  0.37919  1
 O  O4  1  0.00000  0.50000  0.62081  1
 O  O5  1  0.00000  0.00000  0.16305  1
 O  O6  1  0.00000  0.00000  0.83695  1
 O  O7  1  0.00000  0.50000  0.00000  1
 Zn  Zn1  1  0.00000  0.00000  0.34369  1
 Zn  Zn2  1  0.00000  0.00000  0.65631  1
