CIF file written using JARVIS-Tools package.
data_GdPO4
_symmetry_space_group_name_H-M  'I4_1/amd'
_cell_length_a       5.81703
_cell_length_b       5.81703
_cell_length_c       5.81703
_cell_angle_alpha    106.19
_cell_angle_beta     106.19
_cell_angle_gamma    116.253

_symmetry_Int_Tables_number  141
_chemical_formula_structural  GdPO4
_chemical_formula_sum  Gd2P2O8
_cell_volume  149.913365625112
_cell_formula_units_Z  2
loop_
  _symmetry_equiv_pos_site_id
 _symmetry_equiv_pos_as_xyz
 1  'x, y, z'
loop_
 _atom_site_type_symbol
 _atom_site_label
 _atom_site_symmetry_multiplicity
 _atom_site_fract_x
 _atom_site_fract_y
 _atom_site_fract_z
 _atom_site_fract_occupancy
 Gd  Gd1  1  0.25000  0.75000  0.50000  1
 Gd  Gd2  1  0.00000  0.00000  0.00000  1
 O  O1  1  0.48289  0.65702  0.82587  1
 O  O2  1  0.90702  0.23289  0.32587  1
 O  O3  1  0.90702  0.58115  0.67413  1
 O  O4  1  0.83115  0.65702  0.17413  1
 O  O5  1  0.76711  0.09298  0.67413  1
 O  O6  1  0.34298  0.51711  0.17413  1
 O  O7  1  0.34298  0.16885  0.82587  1
 O  O8  1  0.41885  0.09298  0.32587  1
 P  P1  1  0.50000  0.50000  0.00000  1
 P  P2  1  0.75000  0.25000  0.50000  1
