CIF file written using JARVIS-Tools package.
data_ZrUB24
_symmetry_space_group_name_H-M  'R-3m'
_cell_length_a       9.08729
_cell_length_b       9.08729
_cell_length_c       9.08729
_cell_angle_alpha    33.6786
_cell_angle_beta     33.6786
_cell_angle_gamma    33.6786

_symmetry_Int_Tables_number  166
_chemical_formula_structural  ZrUB24
_chemical_formula_sum  ZrUB24
_cell_volume  205.5841254993079
_cell_formula_units_Z  1
loop_
  _symmetry_equiv_pos_site_id
 _symmetry_equiv_pos_as_xyz
 1  'x, y, z'
loop_
 _atom_site_type_symbol
 _atom_site_label
 _atom_site_symmetry_multiplicity
 _atom_site_fract_x
 _atom_site_fract_y
 _atom_site_fract_z
 _atom_site_fract_occupancy
 B  B1  1  0.75074  0.41074  0.08900  1
 B  B2  1  0.91100  0.58926  0.24926  1
 B  B3  1  0.41074  0.08900  0.75074  1
 B  B4  1  0.07978  0.41975  0.07978  1
 B  B5  1  0.57997  0.92065  0.57997  1
 B  B6  1  0.24926  0.58926  0.91100  1
 B  B7  1  0.75074  0.08900  0.41074  1
 B  B8  1  0.07978  0.07978  0.41975  1
 B  B9  1  0.57997  0.57997  0.92065  1
 B  B10  1  0.91100  0.24926  0.58926  1
 B  B11  1  0.41074  0.75074  0.08900  1
 B  B12  1  0.24926  0.91100  0.58926  1
 B  B13  1  0.92065  0.57997  0.57997  1
 B  B14  1  0.42003  0.42003  0.07935  1
 B  B15  1  0.92022  0.92022  0.58025  1
 B  B16  1  0.42003  0.07935  0.42003  1
 B  B17  1  0.92022  0.58025  0.92022  1
 B  B18  1  0.07935  0.42003  0.42003  1
 B  B19  1  0.58025  0.92022  0.92022  1
 B  B20  1  0.58926  0.91100  0.24926  1
 B  B21  1  0.08900  0.41074  0.75074  1
 B  B22  1  0.58926  0.24926  0.91100  1
 B  B23  1  0.08900  0.75074  0.41074  1
 B  B24  1  0.41975  0.07978  0.07978  1
 U  U1  1  0.00000  0.00000  0.00000  1
 Zr  Zr1  1  0.50000  0.50000  0.50000  1
