CIF file written using JARVIS-Tools package.
data_Ca2FeCuSO3
_symmetry_space_group_name_H-M  'P4/nmm'
_cell_length_a       3.78296
_cell_length_b       3.78283
_cell_length_c       15.0137
_cell_angle_alpha    90.0001
_cell_angle_beta     90.0005
_cell_angle_gamma    90

_symmetry_Int_Tables_number  129
_chemical_formula_structural  Ca2FeCuSO3
_chemical_formula_sum  Ca4Fe2Cu2S2O6
_cell_volume  214.85043423224133
_cell_formula_units_Z  2
loop_
  _symmetry_equiv_pos_site_id
 _symmetry_equiv_pos_as_xyz
 1  'x, y, z'
loop_
 _atom_site_type_symbol
 _atom_site_label
 _atom_site_symmetry_multiplicity
 _atom_site_fract_x
 _atom_site_fract_y
 _atom_site_fract_z
 _atom_site_fract_occupancy
 Ca  Ca1  1  0.74995  0.75002  0.19064  1
 Ca  Ca2  1  0.25005  0.24998  0.80936  1
 Ca  Ca3  1  0.74997  0.75000  0.41518  1
 Ca  Ca4  1  0.25003  0.24998  0.58482  1
 Cu  Cu1  1  0.25000  0.75003  0.00000  1
 Cu  Cu2  1  0.74998  0.25002  1.00000  1
 Fe  Fe1  1  0.24995  0.25002  0.30619  1
 Fe  Fe2  1  0.75005  0.74997  0.69381  1
 O  O1  1  0.75003  0.74998  0.56402  1
 O  O2  1  0.24998  0.25000  0.43597  1
 O  O3  1  0.75006  0.24997  0.71090  1
 O  O4  1  0.25005  0.74997  0.71087  1
 O  O5  1  0.24994  0.75002  0.28910  1
 O  O6  1  0.74995  0.25002  0.28913  1
 S  S1  1  0.75002  0.75000  0.89971  1
 S  S2  1  0.24997  0.25002  0.10030  1
