CIF file written using JARVIS-Tools package.
data_Ti3H3Au
_symmetry_space_group_name_H-M  'Pm-3n'
_cell_length_a       5.28841
_cell_length_b       5.28841
_cell_length_c       5.28841
_cell_angle_alpha    90
_cell_angle_beta     90
_cell_angle_gamma    90

_symmetry_Int_Tables_number  223
_chemical_formula_structural  Ti3H3Au
_chemical_formula_sum  Ti6H6Au2
_cell_volume  147.90215732206585
_cell_formula_units_Z  2
loop_
  _symmetry_equiv_pos_site_id
 _symmetry_equiv_pos_as_xyz
 1  'x, y, z'
loop_
 _atom_site_type_symbol
 _atom_site_label
 _atom_site_symmetry_multiplicity
 _atom_site_fract_x
 _atom_site_fract_y
 _atom_site_fract_z
 _atom_site_fract_occupancy
 Au  Au1  1  0.50000  0.50000  0.50000  1
 Au  Au2  1  0.00000  0.00000  0.00000  1
 H  H1  1  0.50000  0.00000  0.75000  1
 H  H2  1  0.00000  0.25000  0.50000  1
 H  H3  1  0.75000  0.50000  0.00000  1
 H  H4  1  0.50000  0.00000  0.25000  1
 H  H5  1  0.00000  0.75000  0.50000  1
 H  H6  1  0.25000  0.50000  0.00000  1
 Ti  Ti1  1  0.00000  0.50000  0.75000  1
 Ti  Ti2  1  0.50000  0.25000  0.00000  1
 Ti  Ti3  1  0.75000  0.00000  0.50000  1
 Ti  Ti4  1  0.00000  0.50000  0.25000  1
 Ti  Ti5  1  0.50000  0.75000  0.00000  1
 Ti  Ti6  1  0.25000  0.00000  0.50000  1
