CIF file written using JARVIS-Tools package.
data_SbPbF7
_symmetry_space_group_name_H-M  'P-1'
_cell_length_a       4.73215
_cell_length_b       7.45094
_cell_length_c       7.6593
_cell_angle_alpha    106.557
_cell_angle_beta     101.998
_cell_angle_gamma    90.6951

_symmetry_Int_Tables_number  2
_chemical_formula_structural  SbPbF7
_chemical_formula_sum  Sb2Pb2F4
_cell_volume  252.47095361700207
_cell_formula_units_Z  2
loop_
  _symmetry_equiv_pos_site_id
 _symmetry_equiv_pos_as_xyz
 1  'x, y, z'
loop_
 _atom_site_type_symbol
 _atom_site_label
 _atom_site_symmetry_multiplicity
 _atom_site_fract_x
 _atom_site_fract_y
 _atom_site_fract_z
 _atom_site_fract_occupancy
 F  F1  1  0.41317  0.80095  0.47518  1
 F  F2  1  0.71847  0.43478  0.90700  1
 F  F3  1  0.28153  0.56522  0.09300  1
 F  F4  1  0.04842  0.05272  0.34089  1
 F  F5  1  0.95158  0.94728  0.65911  1
 F  F6  1  0.11224  0.18523  0.04655  1
 F  F7  1  0.48452  0.94581  0.16873  1
 F  F8  1  0.58683  0.19905  0.52482  1
 F  F9  1  0.88776  0.81477  0.95345  1
 F  F10  1  0.65543  0.31500  0.22595  1
 F  F11  1  0.34457  0.68500  0.77405  1
 F  F12  1  0.20817  0.41752  0.40092  1
 F  F13  1  0.79183  0.58248  0.59908  1
 F  F14  1  0.51548  0.05419  0.83127  1
 Pb  Pb1  1  0.16934  0.35258  0.79607  1
 Pb  Pb2  1  0.83066  0.64742  0.20393  1
 Sb  Sb1  1  0.64817  0.81708  0.71703  1
 Sb  Sb2  1  0.35183  0.18292  0.28297  1
