CIF file written using JARVIS-Tools package.
data_Er3Hf
_symmetry_space_group_name_H-M  'P-3m1'
_cell_length_a       3.39254
_cell_length_b       3.39254
_cell_length_c       10.9429
_cell_angle_alpha    90
_cell_angle_beta     90
_cell_angle_gamma    120

_symmetry_Int_Tables_number  164
_chemical_formula_structural  Er3Hf
_chemical_formula_sum  Er3Hf
_cell_volume  109.07172214808475
_cell_formula_units_Z  1
loop_
  _symmetry_equiv_pos_site_id
 _symmetry_equiv_pos_as_xyz
 1  'x, y, z'
loop_
 _atom_site_type_symbol
 _atom_site_label
 _atom_site_symmetry_multiplicity
 _atom_site_fract_x
 _atom_site_fract_y
 _atom_site_fract_z
 _atom_site_fract_occupancy
 Er  Er1  1  0.33333  0.66667  0.23617  1
 Er  Er2  1  0.00000  0.00000  0.50000  1
 Er  Er3  1  0.66667  0.33333  0.76383  1
 Hf  Hf1  1  0.00000  0.00000  0.00000  1
