CIF file written using JARVIS-Tools package.
data_TiZnF4
_symmetry_space_group_name_H-M  'I4/mcm'
_cell_length_a       5.14619
_cell_length_b       5.14661
_cell_length_c       6.30384
_cell_angle_alpha    114.05
_cell_angle_beta     114.058
_cell_angle_gamma    89.998

_symmetry_Int_Tables_number  140
_chemical_formula_structural  TiZnF4
_chemical_formula_sum  Ti2Zn2F8
_cell_volume  136.43204672552827
_cell_formula_units_Z  2
loop_
  _symmetry_equiv_pos_site_id
 _symmetry_equiv_pos_as_xyz
 1  'x, y, z'
loop_
 _atom_site_type_symbol
 _atom_site_label
 _atom_site_symmetry_multiplicity
 _atom_site_fract_x
 _atom_site_fract_y
 _atom_site_fract_z
 _atom_site_fract_occupancy
 F  F1  1  0.66553  0.66321  0.75358  1
 F  F2  1  0.90983  0.90738  0.24317  1
 F  F3  1  0.33866  0.33620  0.24300  1
 F  F4  1  0.40983  0.83628  0.24311  1
 F  F5  1  0.09420  0.09185  0.75340  1
 F  F6  1  0.16545  0.59188  0.75350  1
 F  F7  1  0.59422  0.16317  0.75353  1
 F  F8  1  0.83874  0.40735  0.24310  1
 Ti  Ti1  1  0.00204  0.49965  -0.00173  1
 Ti  Ti2  1  0.50203  -0.00035  -0.00173  1
 Zn  Zn1  1  0.75230  0.74981  0.49824  1
 Zn  Zn2  1  0.25175  0.24941  0.49824  1
