CIF file written using JARVIS-Tools package.
data_NaBF4
_symmetry_space_group_name_H-M  'Cmcm'
_cell_length_a       4.58103
_cell_length_b       4.58103
_cell_length_c       6.78592
_cell_angle_alpha    90
_cell_angle_beta     90
_cell_angle_gamma    95.6151

_symmetry_Int_Tables_number  63
_chemical_formula_structural  NaBF4
_chemical_formula_sum  Na2B2F8
_cell_volume  141.72507743517647
_cell_formula_units_Z  2
loop_
  _symmetry_equiv_pos_site_id
 _symmetry_equiv_pos_as_xyz
 1  'x, y, z'
loop_
 _atom_site_type_symbol
 _atom_site_label
 _atom_site_symmetry_multiplicity
 _atom_site_fract_x
 _atom_site_fract_y
 _atom_site_fract_z
 _atom_site_fract_occupancy
 B  B1  1  0.85050  0.85050  0.25000  1
 B  B2  1  0.14950  0.14950  0.75000  1
 F  F1  1  0.71529  0.71529  0.41884  1
 F  F2  1  0.28471  0.28471  0.91884  1
 F  F3  1  0.71529  0.71529  0.08116  1
 F  F4  1  0.28471  0.28471  0.58116  1
 F  F5  1  0.18465  0.84630  0.75000  1
 F  F6  1  0.81535  0.15370  0.25000  1
 F  F7  1  0.84630  0.18465  0.75000  1
 F  F8  1  0.15370  0.81535  0.25000  1
 Na  Na1  1  0.35336  0.35336  0.25000  1
 Na  Na2  1  0.64664  0.64664  0.75000  1
