CIF file written using JARVIS-Tools package.
data_DySn2
_symmetry_space_group_name_H-M  'Cmcm'
_cell_length_a       4.34617
_cell_length_b       4.41692
_cell_length_c       8.51022
_cell_angle_alpha    105.041
_cell_angle_beta     90
_cell_angle_gamma    90

_symmetry_Int_Tables_number  63
_chemical_formula_structural  DySn2
_chemical_formula_sum  Dy2Sn4
_cell_volume  157.77095214023336
_cell_formula_units_Z  2
loop_
  _symmetry_equiv_pos_site_id
 _symmetry_equiv_pos_as_xyz
 1  'x, y, z'
loop_
 _atom_site_type_symbol
 _atom_site_label
 _atom_site_symmetry_multiplicity
 _atom_site_fract_x
 _atom_site_fract_y
 _atom_site_fract_z
 _atom_site_fract_occupancy
 Dy  Dy1  1  0.25000  0.90084  0.80168  1
 Dy  Dy2  1  0.75000  0.09916  0.19832  1
 Sn  Sn1  1  0.25000  0.25124  0.50247  1
 Sn  Sn2  1  0.75000  0.74876  0.49753  1
 Sn  Sn3  1  0.75000  0.43686  0.87371  1
 Sn  Sn4  1  0.25000  0.56314  0.12629  1
