CIF file written using JARVIS-Tools package.
data_BaHfO3
_symmetry_space_group_name_H-M  'Pm-3m'
_cell_length_a       4.18972
_cell_length_b       4.18975
_cell_length_c       4.18973
_cell_angle_alpha    90.0001
_cell_angle_beta     90
_cell_angle_gamma    90

_symmetry_Int_Tables_number  221
_chemical_formula_structural  BaHfO3
_chemical_formula_sum  BaHfO3
_cell_volume  73.54609544500217
_cell_formula_units_Z  1
loop_
  _symmetry_equiv_pos_site_id
 _symmetry_equiv_pos_as_xyz
 1  'x, y, z'
loop_
 _atom_site_type_symbol
 _atom_site_label
 _atom_site_symmetry_multiplicity
 _atom_site_fract_x
 _atom_site_fract_y
 _atom_site_fract_z
 _atom_site_fract_occupancy
 Ba  Ba1  1  0.98799  -0.00001  0.00198  1
 Hf  Hf1  1  0.48800  0.49999  0.50199  1
 O  O1  1  0.48799  0.00000  0.50205  1
 O  O2  1  0.98800  0.49999  0.50197  1
 O  O3  1  0.48803  0.50003  0.00200  1
