CIF file written using JARVIS-Tools package.
data_Er2AlSi2
_symmetry_space_group_name_H-M  'Immm'
_cell_length_a       4.05503
_cell_length_b       5.55059
_cell_length_c       5.55059
_cell_angle_alpha    62.2191
_cell_angle_beta     68.5752
_cell_angle_gamma    68.5753

_symmetry_Int_Tables_number  71
_chemical_formula_structural  Er2AlSi2
_chemical_formula_sum  Er2AlSi2
_cell_volume  99.96704620895693
_cell_formula_units_Z  1
loop_
  _symmetry_equiv_pos_site_id
 _symmetry_equiv_pos_as_xyz
 1  'x, y, z'
loop_
 _atom_site_type_symbol
 _atom_site_label
 _atom_site_symmetry_multiplicity
 _atom_site_fract_x
 _atom_site_fract_y
 _atom_site_fract_z
 _atom_site_fract_occupancy
 Al  Al1  1  0.00000  0.00000  0.00000  1
 Er  Er1  1  0.78829  0.71171  0.71171  1
 Er  Er2  1  0.21171  0.28829  0.28829  1
 Si  Si1  1  0.50000  0.29006  0.70994  1
 Si  Si2  1  0.50000  0.70994  0.29006  1
