CIF file written using JARVIS-Tools package.
data_K3VS4
_symmetry_space_group_name_H-M  'Pnma'
_cell_length_a       9.11214
_cell_length_b       9.12441
_cell_length_c       10.4751
_cell_angle_alpha    90
_cell_angle_beta     90
_cell_angle_gamma    90

_symmetry_Int_Tables_number  62
_chemical_formula_structural  K3VS4
_chemical_formula_sum  K2V4S6
_cell_volume  870.930728795021
_cell_formula_units_Z  4
loop_
  _symmetry_equiv_pos_site_id
 _symmetry_equiv_pos_as_xyz
 1  'x, y, z'
loop_
 _atom_site_type_symbol
 _atom_site_label
 _atom_site_symmetry_multiplicity
 _atom_site_fract_x
 _atom_site_fract_y
 _atom_site_fract_z
 _atom_site_fract_occupancy
 K  K1  1  0.05107  0.20724  0.04406  1
 K  K2  1  0.94893  0.79276  0.95594  1
 K  K3  1  0.05107  0.20724  0.45594  1
 K  K4  1  0.55107  0.29276  0.04406  1
 K  K5  1  0.44893  0.70724  0.95594  1
 K  K6  1  0.55107  0.29276  0.45594  1
 K  K7  1  0.44893  0.70724  0.54406  1
 K  K8  1  0.86049  0.58753  0.25000  1
 K  K9  1  0.63951  0.08753  0.75000  1
 K  K10  1  0.36049  0.91247  0.25000  1
 K  K11  1  0.13951  0.41247  0.75000  1
 K  K12  1  0.94893  0.79276  0.54406  1
 S  S1  1  0.49696  0.42196  0.75000  1
 S  S2  1  0.16893  0.55050  0.42048  1
 S  S3  1  0.33107  0.05050  0.92048  1
 S  S4  1  0.19830  0.74815  0.75000  1
 S  S5  1  0.30170  0.24815  0.25000  1
 S  S6  1  0.69830  0.75185  0.75000  1
 S  S7  1  0.80170  0.25185  0.25000  1
 S  S8  1  0.50304  0.57804  0.25000  1
 S  S9  1  0.00304  0.92196  0.25000  1
 S  S10  1  0.83107  0.44950  0.92048  1
 S  S11  1  0.83107  0.44950  0.57952  1
 S  S12  1  0.16893  0.55050  0.07952  1
 S  S13  1  0.66893  0.94950  0.07952  1
 S  S14  1  0.33107  0.05050  0.57952  1
 S  S15  1  -0.00304  0.07804  0.75000  1
 S  S16  1  0.66893  0.94950  0.42048  1
 V  V1  1  0.78383  0.01601  0.25000  1
 V  V2  1  0.21617  0.98399  0.75000  1
 V  V3  1  0.28383  0.48399  0.25000  1
 V  V4  1  0.71617  0.51601  0.75000  1
