CIF file written using JARVIS-Tools package.
data_Ca5Si3
_symmetry_space_group_name_H-M  'I4/mcm'
_cell_length_a       7.61675
_cell_length_b       7.61674
_cell_length_c       9.11041
_cell_angle_alpha    114.71
_cell_angle_beta     114.71
_cell_angle_gamma    89.9999

_symmetry_Int_Tables_number  140
_chemical_formula_structural  Ca5Si3
_chemical_formula_sum  Ca0Si6
_cell_volume  426.288670694388
_cell_formula_units_Z  2
loop_
  _symmetry_equiv_pos_site_id
 _symmetry_equiv_pos_as_xyz
 1  'x, y, z'
loop_
 _atom_site_type_symbol
 _atom_site_label
 _atom_site_symmetry_multiplicity
 _atom_site_fract_x
 _atom_site_fract_y
 _atom_site_fract_z
 _atom_site_fract_occupancy
 Ca  Ca1  1  0.17939  0.03798  0.71738  1
 Ca  Ca2  1  0.03798  0.53798  0.71738  1
 Ca  Ca3  1  0.67939  0.17939  0.71738  1
 Ca  Ca4  1  0.96202  0.46202  0.28262  1
 Ca  Ca5  1  0.53799  0.67939  0.71738  1
 Ca  Ca6  1  0.82061  0.96202  0.28262  1
 Ca  Ca7  1  0.46201  0.32061  0.28262  1
 Ca  Ca8  1  0.32061  0.82061  0.28262  1
 Ca  Ca9  1  0.50000  0.50000  0.00000  1
 Ca  Ca10  1  0.00000  0.00000  0.00000  1
 Si  Si1  1  0.61342  0.11342  -0.00000  1
 Si  Si2  1  0.88658  0.61342  -0.00000  1
 Si  Si3  1  0.11342  0.38658  0.00000  1
 Si  Si4  1  0.38658  0.88658  0.00000  1
 Si  Si5  1  0.75000  0.75000  0.50000  1
 Si  Si6  1  0.25000  0.25000  0.50000  1
