CIF file written using JARVIS-Tools package.
data_Ba
_symmetry_space_group_name_H-M  'I4/mcm'
_cell_length_a       7.39282
_cell_length_b       6.77483
_cell_length_c       6.77482
_cell_angle_alpha    72.6811
_cell_angle_beta     56.9336
_cell_angle_gamma    56.9336

_symmetry_Int_Tables_number  140
_chemical_formula_structural  Ba
_chemical_formula_sum  Ba4
_cell_volume  238.3062343912616
_cell_formula_units_Z  4
loop_
  _symmetry_equiv_pos_site_id
 _symmetry_equiv_pos_as_xyz
 1  'x, y, z'
loop_
 _atom_site_type_symbol
 _atom_site_label
 _atom_site_symmetry_multiplicity
 _atom_site_fract_x
 _atom_site_fract_y
 _atom_site_fract_z
 _atom_site_fract_occupancy
 Ba  Ba1  1  0.17890  0.50000  0.14220  1
 Ba  Ba2  1  0.82110  0.50000  0.85780  1
 Ba  Ba3  1  0.67890  0.14220  0.50000  1
 Ba  Ba4  1  0.32110  0.85780  0.50000  1
