CIF file written using JARVIS-Tools package.
data_Y2TeS2
_symmetry_space_group_name_H-M  'Immm'
_cell_length_a       7.50094
_cell_length_b       7.50094
_cell_length_c       7.50094
_cell_angle_alpha    147.638
_cell_angle_beta     138.124
_cell_angle_gamma    53.8949

_symmetry_Int_Tables_number  71
_chemical_formula_structural  Y2TeS2
_chemical_formula_sum  Y2TeS2
_cell_volume  149.86301235888695
_cell_formula_units_Z  1
loop_
  _symmetry_equiv_pos_site_id
 _symmetry_equiv_pos_as_xyz
 1  'x, y, z'
loop_
 _atom_site_type_symbol
 _atom_site_label
 _atom_site_symmetry_multiplicity
 _atom_site_fract_x
 _atom_site_fract_y
 _atom_site_fract_z
 _atom_site_fract_occupancy
 S  S1  1  0.70055  0.70055  -0.00000  1
 S  S2  1  0.29945  0.29945  0.00000  1
 Te  Te1  1  0.00000  0.00000  0.00000  1
 Y  Y1  1  0.83266  0.33266  0.50000  1
 Y  Y2  1  0.16734  0.66734  0.50000  1
