CIF file written using JARVIS-Tools package.
data_NaVS2
_symmetry_space_group_name_H-M  'R3m'
_cell_length_a       6.95254
_cell_length_b       6.95254
_cell_length_c       6.95253
_cell_angle_alpha    29.6705
_cell_angle_beta     29.6704
_cell_angle_gamma    29.6705

_symmetry_Int_Tables_number  160
_chemical_formula_structural  NaVS2
_chemical_formula_sum  NaVS2
_cell_volume  72.90782633267736
_cell_formula_units_Z  1
loop_
  _symmetry_equiv_pos_site_id
 _symmetry_equiv_pos_as_xyz
 1  'x, y, z'
loop_
 _atom_site_type_symbol
 _atom_site_label
 _atom_site_symmetry_multiplicity
 _atom_site_fract_x
 _atom_site_fract_y
 _atom_site_fract_z
 _atom_site_fract_occupancy
 Na  Na1  1  0.83378  0.83378  0.83378  1
 S  S1  1  0.40318  0.40318  0.40318  1
 S  S2  1  0.60079  0.60079  0.60079  1
 V  V1  1  0.00225  0.00225  0.00225  1
