CIF file written using JARVIS-Tools package.
data_V3S4
_symmetry_space_group_name_H-M  'P6_3/m'
_cell_length_a       9.09835
_cell_length_b       9.09835
_cell_length_c       3.25391
_cell_angle_alpha    90
_cell_angle_beta     90
_cell_angle_gamma    120

_symmetry_Int_Tables_number  176
_chemical_formula_structural  V3S4
_chemical_formula_sum  V6S8
_cell_volume  233.2710516686037
_cell_formula_units_Z  2
loop_
  _symmetry_equiv_pos_site_id
 _symmetry_equiv_pos_as_xyz
 1  'x, y, z'
loop_
 _atom_site_type_symbol
 _atom_site_label
 _atom_site_symmetry_multiplicity
 _atom_site_fract_x
 _atom_site_fract_y
 _atom_site_fract_z
 _atom_site_fract_occupancy
 S  S1  1  0.66667  0.33333  0.25000  1
 S  S2  1  0.33333  0.66667  0.75000  1
 S  S3  1  0.29319  0.34523  0.25000  1
 S  S4  1  0.34523  0.05204  0.75000  1
 S  S5  1  0.94796  0.29319  0.75000  1
 S  S6  1  0.05204  0.70681  0.25000  1
 S  S7  1  0.70681  0.65477  0.75000  1
 S  S8  1  0.65477  0.94796  0.25000  1
 V  V1  1  0.11674  0.48833  0.25000  1
 V  V2  1  0.48833  0.37158  0.75000  1
 V  V3  1  0.62842  0.11674  0.75000  1
 V  V4  1  0.37158  0.88326  0.25000  1
 V  V5  1  0.51167  0.62842  0.25000  1
 V  V6  1  0.88326  0.51167  0.75000  1
