CIF file written using JARVIS-Tools package.
data_UCuPO
_symmetry_space_group_name_H-M  'P4/nmm'
_cell_length_a       3.76231
_cell_length_b       3.76231
_cell_length_c       8.30015
_cell_angle_alpha    90
_cell_angle_beta     90
_cell_angle_gamma    90

_symmetry_Int_Tables_number  129
_chemical_formula_structural  UCuPO
_chemical_formula_sum  U2Cu2P2O2
_cell_volume  117.48816873186512
_cell_formula_units_Z  2
loop_
  _symmetry_equiv_pos_site_id
 _symmetry_equiv_pos_as_xyz
 1  'x, y, z'
loop_
 _atom_site_type_symbol
 _atom_site_label
 _atom_site_symmetry_multiplicity
 _atom_site_fract_x
 _atom_site_fract_y
 _atom_site_fract_z
 _atom_site_fract_occupancy
 Cu  Cu1  1  0.50000  0.50000  0.00000  1
 Cu  Cu2  1  0.00000  0.00000  0.00000  1
 O  O1  1  0.00000  0.00000  0.50000  1
 O  O2  1  0.50000  0.50000  0.50000  1
 P  P1  1  0.00000  0.50000  0.17944  1
 P  P2  1  0.50000  0.00000  0.82056  1
 U  U1  1  0.50000  0.00000  0.33675  1
 U  U2  1  0.00000  0.50000  0.66325  1
