CIF file written using JARVIS-Tools package.
data_NpGe2Pd2
_symmetry_space_group_name_H-M  'I4/mmm'
_cell_length_a       4.20859
_cell_length_b       4.20859
_cell_length_c       6.02805
_cell_angle_alpha    110.431
_cell_angle_beta     110.431
_cell_angle_gamma    90.0001

_symmetry_Int_Tables_number  139
_chemical_formula_structural  NpGe2Pd2
_chemical_formula_sum  NpGe2Pd2
_cell_volume  92.85204906306501
_cell_formula_units_Z  1
loop_
  _symmetry_equiv_pos_site_id
 _symmetry_equiv_pos_as_xyz
 1  'x, y, z'
loop_
 _atom_site_type_symbol
 _atom_site_label
 _atom_site_symmetry_multiplicity
 _atom_site_fract_x
 _atom_site_fract_y
 _atom_site_fract_z
 _atom_site_fract_occupancy
 Ge  Ge1  1  0.61634  0.61634  0.23269  1
 Ge  Ge2  1  0.38366  0.38366  0.76731  1
 Np  Np1  1  0.00000  0.00000  0.00000  1
 Pd  Pd1  1  0.25000  0.75000  0.50000  1
 Pd  Pd2  1  0.75000  0.25000  0.50000  1
