CIF file written using JARVIS-Tools package.
data_LiYF4
_symmetry_space_group_name_H-M  'P2/c'
_cell_length_a       5.03363
_cell_length_b       5.32315
_cell_length_c       5.32351
_cell_angle_alpha    90
_cell_angle_beta     90.0761
_cell_angle_gamma    90

_symmetry_Int_Tables_number  13
_chemical_formula_structural  LiYF4
_chemical_formula_sum  Li2Y2F8
_cell_volume  142.6421901882254
_cell_formula_units_Z  2
loop_
  _symmetry_equiv_pos_site_id
 _symmetry_equiv_pos_as_xyz
 1  'x, y, z'
loop_
 _atom_site_type_symbol
 _atom_site_label
 _atom_site_symmetry_multiplicity
 _atom_site_fract_x
 _atom_site_fract_y
 _atom_site_fract_z
 _atom_site_fract_occupancy
 F  F1  1  0.26070  0.43420  0.93390  1
 F  F2  1  0.73930  0.43420  0.56610  1
 F  F3  1  0.26064  0.93433  0.06537  1
 F  F4  1  0.73936  0.93433  0.43463  1
 F  F5  1  0.73936  0.06567  0.93463  1
 F  F6  1  0.26064  0.06567  0.56537  1
 F  F7  1  0.26070  0.56580  0.43390  1
 F  F8  1  0.73930  0.56580  0.06610  1
 Li  Li1  1  0.00000  0.75058  0.25000  1
 Li  Li2  1  -0.00000  0.24942  0.75000  1
 Y  Y1  1  0.50000  0.74993  0.75000  1
 Y  Y2  1  0.50000  0.25007  0.25000  1
