CIF file written using JARVIS-Tools package.
data_RbTcO4
_symmetry_space_group_name_H-M  'I4_1/a'
_cell_length_a       7.77454
_cell_length_b       5.80914
_cell_length_c       5.80914
_cell_angle_alpha    90
_cell_angle_beta     111.938
_cell_angle_gamma    111.938

_symmetry_Int_Tables_number  88
_chemical_formula_structural  RbTcO4
_chemical_formula_sum  Rb2Tc2O8
_cell_volume  222.7508767685437
_cell_formula_units_Z  2
loop_
  _symmetry_equiv_pos_site_id
 _symmetry_equiv_pos_as_xyz
 1  'x, y, z'
loop_
 _atom_site_type_symbol
 _atom_site_label
 _atom_site_symmetry_multiplicity
 _atom_site_fract_x
 _atom_site_fract_y
 _atom_site_fract_z
 _atom_site_fract_occupancy
 O  O1  1  0.89938  0.73260  0.08880  1
 O  O2  1  0.39938  0.08879  0.16678  1
 O  O3  1  0.60062  0.68942  0.26740  1
 O  O4  1  0.89938  0.16678  0.31058  1
 O  O5  1  0.10062  0.83322  0.68942  1
 O  O6  1  0.39938  0.31058  0.73260  1
 O  O7  1  0.60062  0.91121  0.83322  1
 O  O8  1  0.10062  0.26740  0.91121  1
 Rb  Rb1  1  0.25000  0.62500  0.37500  1
 Rb  Rb2  1  0.75000  0.37500  0.62500  1
 Tc  Tc1  1  0.75000  0.87500  0.12500  1
 Tc  Tc2  1  0.25000  0.12500  0.87500  1
