CIF file written using JARVIS-Tools package.
data_MgCo6P4
_symmetry_space_group_name_H-M  'P-6m2'
_cell_length_a       6.59026
_cell_length_b       6.59026
_cell_length_c       3.36962
_cell_angle_alpha    90
_cell_angle_beta     90
_cell_angle_gamma    120

_symmetry_Int_Tables_number  187
_chemical_formula_structural  MgCo6P4
_chemical_formula_sum  MgCo6P4
_cell_volume  126.74044993082028
_cell_formula_units_Z  1
loop_
  _symmetry_equiv_pos_site_id
 _symmetry_equiv_pos_as_xyz
 1  'x, y, z'
loop_
 _atom_site_type_symbol
 _atom_site_label
 _atom_site_symmetry_multiplicity
 _atom_site_fract_x
 _atom_site_fract_y
 _atom_site_fract_z
 _atom_site_fract_occupancy
 Co  Co1  1  0.19864  0.80136  0.50000  1
 Co  Co2  1  0.19864  0.39729  0.50000  1
 Co  Co3  1  0.53528  0.07057  0.00000  1
 Co  Co4  1  0.92943  0.46472  0.00000  1
 Co  Co5  1  0.53528  0.46472  0.00000  1
 Co  Co6  1  0.60271  0.80136  0.50000  1
 Mg  Mg1  1  0.00000  0.00000  0.00000  1
 P  P1  1  0.81401  0.18599  0.50000  1
 P  P2  1  0.37197  0.18599  0.50000  1
 P  P3  1  0.33333  0.66667  0.00000  1
 P  P4  1  0.81401  0.62803  0.50000  1
