CIF file written using JARVIS-Tools package.
data_MgCu2O4
_symmetry_space_group_name_H-M  'I4_1/a'
_cell_length_a       5.41768
_cell_length_b       5.41761
_cell_length_c       6.07026
_cell_angle_alpha    116.503
_cell_angle_beta     116.504
_cell_angle_gamma    89.9998

_symmetry_Int_Tables_number  88
_chemical_formula_structural  MgCu2O4
_chemical_formula_sum  Mg2Cu4O8
_cell_volume  138.20701272519503
_cell_formula_units_Z  2
loop_
  _symmetry_equiv_pos_site_id
 _symmetry_equiv_pos_as_xyz
 1  'x, y, z'
loop_
 _atom_site_type_symbol
 _atom_site_label
 _atom_site_symmetry_multiplicity
 _atom_site_fract_x
 _atom_site_fract_y
 _atom_site_fract_z
 _atom_site_fract_occupancy
 Cu  Cu1  1  0.50000  0.00000  0.50001  1
 Cu  Cu2  1  0.00001  0.00001  0.50001  1
 Cu  Cu3  1  0.50001  0.00000  0.00001  1
 Cu  Cu4  1  0.50000  0.50001  0.00001  1
 Mg  Mg1  1  0.12497  0.37498  0.24995  1
 Mg  Mg2  1  0.87499  0.62497  0.74995  1
 O  O1  1  0.27749  0.98604  0.15403  1
 O  O2  1  0.51396  0.62346  0.34599  1
 O  O3  1  0.83202  0.22254  0.34600  1
 O  O4  1  0.12346  0.33202  0.84599  1
 O  O5  1  0.16799  0.77748  0.65402  1
 O  O6  1  0.48604  0.37654  0.65403  1
 O  O7  1  0.87654  0.66799  0.15402  1
 O  O8  1  0.72254  0.01397  0.84599  1
