CIF file written using JARVIS-Tools package.
data_HgPbF6
_symmetry_space_group_name_H-M  'R-3'
_cell_length_a       6.10029
_cell_length_b       6.1003
_cell_length_c       6.1003
_cell_angle_alpha    51.4441
_cell_angle_beta     51.444
_cell_angle_gamma    51.4441

_symmetry_Int_Tables_number  148
_chemical_formula_structural  HgPbF6
_chemical_formula_sum  HgPbF6
_cell_volume  128.18344991653717
_cell_formula_units_Z  1
loop_
  _symmetry_equiv_pos_site_id
 _symmetry_equiv_pos_as_xyz
 1  'x, y, z'
loop_
 _atom_site_type_symbol
 _atom_site_label
 _atom_site_symmetry_multiplicity
 _atom_site_fract_x
 _atom_site_fract_y
 _atom_site_fract_z
 _atom_site_fract_occupancy
 F  F1  1  0.06345  0.40889  0.76318  1
 F  F2  1  0.40889  0.76318  0.06345  1
 F  F3  1  0.76318  0.06345  0.40889  1
 F  F4  1  0.23682  0.93655  0.59111  1
 F  F5  1  0.59111  0.23682  0.93655  1
 F  F6  1  0.93655  0.59111  0.23682  1
 Hg  Hg1  1  0.50000  0.50000  0.50000  1
 Pb  Pb1  1  0.00000  0.00000  0.00000  1
