CIF file written using JARVIS-Tools package.
data_HoPtF7
_symmetry_space_group_name_H-M  'P2_1/c'
_cell_length_a       8.76221
_cell_length_b       5.41255
_cell_length_c       11.9295
_cell_angle_alpha    90
_cell_angle_beta     117.463
_cell_angle_gamma    90

_symmetry_Int_Tables_number  14
_chemical_formula_structural  HoPtF7
_chemical_formula_sum  Ho4Pt4F28
_cell_volume  502.0076005597865
_cell_formula_units_Z  4
loop_
  _symmetry_equiv_pos_site_id
 _symmetry_equiv_pos_as_xyz
 1  'x, y, z'
loop_
 _atom_site_type_symbol
 _atom_site_label
 _atom_site_symmetry_multiplicity
 _atom_site_fract_x
 _atom_site_fract_y
 _atom_site_fract_z
 _atom_site_fract_occupancy
 F  F1  1  0.96514  0.40111  0.76922  1
 F  F2  1  0.98060  0.24852  0.54994  1
 F  F3  1  0.47795  0.28656  0.36255  1
 F  F4  1  0.52205  0.71344  0.63745  1
 F  F5  1  0.47795  0.21344  0.86255  1
 F  F6  1  0.03486  0.59889  0.23078  1
 F  F7  1  0.52205  0.78656  0.13745  1
 F  F8  1  0.74540  0.05978  0.82179  1
 F  F9  1  0.26693  0.07259  0.95753  1
 F  F10  1  0.73307  0.92741  0.04247  1
 F  F11  1  0.26693  0.42741  0.45753  1
 F  F12  1  0.70424  0.07061  0.58921  1
 F  F13  1  0.29576  0.57061  0.91079  1
 F  F14  1  0.29576  0.92939  0.41079  1
 F  F15  1  0.70424  0.42939  0.08921  1
 F  F16  1  0.73307  0.57259  0.54247  1
 F  F17  1  0.03486  0.90111  0.73078  1
 F  F18  1  0.96514  0.09889  0.26922  1
 F  F19  1  0.98060  0.25148  0.04994  1
 F  F20  1  0.01940  0.74852  0.95006  1
 F  F21  1  0.71691  0.95496  0.36508  1
 F  F22  1  0.28309  0.45496  0.13492  1
 F  F23  1  0.28309  0.04504  0.63492  1
 F  F24  1  0.01940  0.75148  0.45006  1
 F  F25  1  0.74540  0.44022  0.32179  1
 F  F26  1  0.25460  0.55978  0.67821  1
 F  F27  1  0.25460  0.94022  0.17821  1
 F  F28  1  0.71691  0.54504  0.86508  1
 Ho  Ho1  1  0.81346  0.73737  0.73652  1
 Ho  Ho2  1  0.18654  0.23737  0.76348  1
 Ho  Ho3  1  0.18654  0.26263  0.26348  1
 Ho  Ho4  1  0.81346  0.76263  0.23652  1
 Pt  Pt1  1  0.27103  0.74101  0.54189  1
 Pt  Pt2  1  0.72897  0.24101  0.95811  1
 Pt  Pt3  1  0.72897  0.25899  0.45811  1
 Pt  Pt4  1  0.27103  0.75899  0.04189  1
