CIF file written using JARVIS-Tools package.
data_HeSiO2
_symmetry_space_group_name_H-M  'R-3c'
_cell_length_a       9.1543
_cell_length_b       9.1543
_cell_length_c       9.1543
_cell_angle_alpha    32.7682
_cell_angle_beta     32.7682
_cell_angle_gamma    32.7682

_symmetry_Int_Tables_number  167
_chemical_formula_structural  HeSiO2
_chemical_formula_sum  He4Si4O8
_cell_volume  199.91379897539048
_cell_formula_units_Z  4
loop_
  _symmetry_equiv_pos_site_id
 _symmetry_equiv_pos_as_xyz
 1  'x, y, z'
loop_
 _atom_site_type_symbol
 _atom_site_label
 _atom_site_symmetry_multiplicity
 _atom_site_fract_x
 _atom_site_fract_y
 _atom_site_fract_z
 _atom_site_fract_occupancy
 He  He1  1  0.68138  0.68138  0.68138  1
 He  He2  1  0.31862  0.31862  0.31862  1
 He  He3  1  0.18138  0.18138  0.18138  1
 He  He4  1  0.81862  0.81862  0.81862  1
 O  O1  1  0.00000  0.00000  0.00000  1
 O  O2  1  0.50000  0.50000  0.50000  1
 O  O3  1  0.68322  0.25000  0.81678  1
 O  O4  1  0.25000  0.81678  0.68322  1
 O  O5  1  0.81678  0.68322  0.25000  1
 O  O6  1  0.31678  0.75000  0.18322  1
 O  O7  1  0.75000  0.18322  0.31678  1
 O  O8  1  0.18322  0.31678  0.75000  1
 Si  Si1  1  0.93763  0.93763  0.93763  1
 Si  Si2  1  0.06237  0.06237  0.06237  1
 Si  Si3  1  0.43763  0.43763  0.43763  1
 Si  Si4  1  0.56237  0.56237  0.56237  1
