CIF file written using JARVIS-Tools package.
data_LiCN
_symmetry_space_group_name_H-M  'Pnma'
_cell_length_a       3.69506
_cell_length_b       5.67968
_cell_length_c       8.90168
_cell_angle_alpha    90
_cell_angle_beta     90
_cell_angle_gamma    90

_symmetry_Int_Tables_number  62
_chemical_formula_structural  LiCN
_chemical_formula_sum  Li4C4N4
_cell_volume  186.81746665606323
_cell_formula_units_Z  4
loop_
  _symmetry_equiv_pos_site_id
 _symmetry_equiv_pos_as_xyz
 1  'x, y, z'
loop_
 _atom_site_type_symbol
 _atom_site_label
 _atom_site_symmetry_multiplicity
 _atom_site_fract_x
 _atom_site_fract_y
 _atom_site_fract_z
 _atom_site_fract_occupancy
 C  C1  1  0.25000  0.31408  0.17365  1
 C  C2  1  0.75000  0.68592  0.82635  1
 C  C3  1  0.75000  0.81408  0.32635  1
 C  C4  1  0.25000  0.18592  0.67365  1
 Li  Li1  1  0.25000  0.50324  0.37696  1
 Li  Li2  1  0.75000  0.49676  0.62304  1
 Li  Li3  1  0.75000  0.00324  0.12304  1
 Li  Li4  1  0.25000  -0.00324  0.87696  1
 N  N1  1  0.25000  0.18772  0.06908  1
 N  N2  1  0.75000  0.81228  0.93092  1
 N  N3  1  0.75000  0.68772  0.43092  1
 N  N4  1  0.25000  0.31228  0.56908  1
