CIF file written using JARVIS-Tools package.
data_F
_symmetry_space_group_name_H-M  'Cmce'
_cell_length_a       3.05427
_cell_length_b       3.05426
_cell_length_c       6.47295
_cell_angle_alpha    90.1246
_cell_angle_beta     89.8753
_cell_angle_gamma    113.806

_symmetry_Int_Tables_number  64
_chemical_formula_structural  F
_chemical_formula_sum  F4
_cell_volume  55.24518824216624
_cell_formula_units_Z  4
loop_
  _symmetry_equiv_pos_site_id
 _symmetry_equiv_pos_as_xyz
 1  'x, y, z'
loop_
 _atom_site_type_symbol
 _atom_site_label
 _atom_site_symmetry_multiplicity
 _atom_site_fract_x
 _atom_site_fract_y
 _atom_site_fract_z
 _atom_site_fract_occupancy
 F  F1  1  0.90068  0.40112  0.59855  1
 F  F2  1  0.40112  0.90068  0.90145  1
 F  F3  1  0.09932  0.59888  0.40145  1
 F  F4  1  0.59888  0.09932  0.09855  1
