CIF file written using JARVIS-Tools package.
data_In5AgSe8
_symmetry_space_group_name_H-M  'P-42m'
_cell_length_a       5.85747
_cell_length_b       5.85747
_cell_length_c       11.8376
_cell_angle_alpha    90
_cell_angle_beta     90
_cell_angle_gamma    90

_symmetry_Int_Tables_number  111
_chemical_formula_structural  In5AgSe8
_chemical_formula_sum  In5AgSe8
_cell_volume  406.1461812825324
_cell_formula_units_Z  1
loop_
  _symmetry_equiv_pos_site_id
 _symmetry_equiv_pos_as_xyz
 1  'x, y, z'
loop_
 _atom_site_type_symbol
 _atom_site_label
 _atom_site_symmetry_multiplicity
 _atom_site_fract_x
 _atom_site_fract_y
 _atom_site_fract_z
 _atom_site_fract_occupancy
 Ag  Ag1  1  0.00000  0.00000  0.50000  1
 In  In1  1  0.50000  0.00000  0.25547  1
 In  In2  1  0.50000  0.00000  0.74453  1
 In  In3  1  0.00000  0.50000  0.74453  1
 In  In4  1  0.00000  0.50000  0.25547  1
 In  In5  1  0.50000  0.50000  0.00000  1
 Se  Se1  1  0.77708  0.77708  0.11124  1
 Se  Se2  1  0.27707  0.72293  0.38584  1
 Se  Se3  1  0.72293  0.72293  0.61416  1
 Se  Se4  1  0.72293  0.27707  0.38584  1
 Se  Se5  1  0.77708  0.22292  0.88876  1
 Se  Se6  1  0.27707  0.27707  0.61416  1
 Se  Se7  1  0.22292  0.22292  0.11124  1
 Se  Se8  1  0.22292  0.77708  0.88876  1
