CIF file written using JARVIS-Tools package.
data_LiIrF6
_symmetry_space_group_name_H-M  'R-3'
_cell_length_a       5.3906
_cell_length_b       5.3906
_cell_length_c       5.3906
_cell_angle_alpha    54.9516
_cell_angle_beta     54.9516
_cell_angle_gamma    54.9517

_symmetry_Int_Tables_number  148
_chemical_formula_structural  LiIrF6
_chemical_formula_sum  LiIrF6
_cell_volume  97.75071410046772
_cell_formula_units_Z  1
loop_
  _symmetry_equiv_pos_site_id
 _symmetry_equiv_pos_as_xyz
 1  'x, y, z'
loop_
 _atom_site_type_symbol
 _atom_site_label
 _atom_site_symmetry_multiplicity
 _atom_site_fract_x
 _atom_site_fract_y
 _atom_site_fract_z
 _atom_site_fract_occupancy
 F  F1  1  0.61511  0.24228  0.89895  1
 F  F2  1  0.24228  0.89895  0.61511  1
 F  F3  1  0.10105  0.38489  0.75772  1
 F  F4  1  0.89895  0.61511  0.24228  1
 F  F5  1  0.75772  0.10105  0.38489  1
 F  F6  1  0.38489  0.75772  0.10105  1
 Ir  Ir1  1  0.00000  0.00000  0.00000  1
 Li  Li1  1  0.50000  0.50000  0.50000  1
