CIF file written using JARVIS-Tools package.
data_Tm6FeSb2
_symmetry_space_group_name_H-M  'P-62m'
_cell_length_a       8.04593
_cell_length_b       8.04593
_cell_length_c       4.05753
_cell_angle_alpha    90
_cell_angle_beta     90
_cell_angle_gamma    120

_symmetry_Int_Tables_number  189
_chemical_formula_structural  Tm6FeSb2
_chemical_formula_sum  Tm6FeSb2
_cell_volume  227.4805567435936
_cell_formula_units_Z  1
loop_
  _symmetry_equiv_pos_site_id
 _symmetry_equiv_pos_as_xyz
 1  'x, y, z'
loop_
 _atom_site_type_symbol
 _atom_site_label
 _atom_site_symmetry_multiplicity
 _atom_site_fract_x
 _atom_site_fract_y
 _atom_site_fract_z
 _atom_site_fract_occupancy
 Fe  Fe1  1  0.00000  0.00000  0.50000  1
 Sb  Sb1  1  0.33333  0.66667  0.00000  1
 Sb  Sb2  1  0.66667  0.33333  0.00000  1
 Tm  Tm1  1  1.00000  0.76709  0.00000  1
 Tm  Tm2  1  0.23291  0.23291  0.00000  1
 Tm  Tm3  1  0.76709  1.00000  0.00000  1
 Tm  Tm4  1  0.39276  0.00000  0.50000  1
 Tm  Tm5  1  0.60724  0.60724  0.50000  1
 Tm  Tm6  1  0.00000  0.39276  0.50000  1
