CIF file written using JARVIS-Tools package.
data_YbKS2
_symmetry_space_group_name_H-M  'R-3m'
_cell_length_a       7.60544
_cell_length_b       7.60545
_cell_length_c       7.60544
_cell_angle_alpha    31.2603
_cell_angle_beta     31.2603
_cell_angle_gamma    31.2602

_symmetry_Int_Tables_number  166
_chemical_formula_structural  YbKS2
_chemical_formula_sum  YbKS2
_cell_volume  105.1330335385668
_cell_formula_units_Z  1
loop_
  _symmetry_equiv_pos_site_id
 _symmetry_equiv_pos_as_xyz
 1  'x, y, z'
loop_
 _atom_site_type_symbol
 _atom_site_label
 _atom_site_symmetry_multiplicity
 _atom_site_fract_x
 _atom_site_fract_y
 _atom_site_fract_z
 _atom_site_fract_occupancy
 K  K1  1  0.50000  0.50000  0.50000  1
 S  S1  1  0.73517  0.73517  0.73517  1
 S  S2  1  0.26483  0.26483  0.26483  1
 Yb  Yb1  1  0.00000  0.00000  0.00000  1
