CIF file written using JARVIS-Tools package.
data_LiMnF4
_symmetry_space_group_name_H-M  'P2_1/c'
_cell_length_a       5.42289
_cell_length_b       4.64926
_cell_length_c       5.74857
_cell_angle_alpha    90
_cell_angle_beta     113.645
_cell_angle_gamma    90

_symmetry_Int_Tables_number  14
_chemical_formula_structural  LiMnF4
_chemical_formula_sum  Li2Mn2F8
_cell_volume  132.76752168620274
_cell_formula_units_Z  2
loop_
  _symmetry_equiv_pos_site_id
 _symmetry_equiv_pos_as_xyz
 1  'x, y, z'
loop_
 _atom_site_type_symbol
 _atom_site_label
 _atom_site_symmetry_multiplicity
 _atom_site_fract_x
 _atom_site_fract_y
 _atom_site_fract_z
 _atom_site_fract_occupancy
 F  F1  1  0.84970  0.21664  0.63959  1
 F  F2  1  0.32840  0.18612  0.14162  1
 F  F3  1  0.15030  0.78336  0.36041  1
 F  F4  1  0.15030  0.71664  0.86041  1
 F  F5  1  0.84970  0.28336  0.13959  1
 F  F6  1  0.67160  0.81388  0.85838  1
 F  F7  1  0.32840  0.31388  0.64162  1
 F  F8  1  0.67160  0.68612  0.35838  1
 Li  Li1  1  0.50000  0.50000  0.00000  1
 Li  Li2  1  0.50000  0.00000  0.50000  1
 Mn  Mn1  1  0.00000  0.00000  0.00000  1
 Mn  Mn2  1  0.00000  0.50000  0.50000  1
