CIF file written using JARVIS-Tools package.
data_SiO2
_symmetry_space_group_name_H-M  'Cc'
_cell_length_a       5.37673
_cell_length_b       5.37672
_cell_length_c       5.48571
_cell_angle_alpha    96.5644
_cell_angle_beta     96.5644
_cell_angle_gamma    100.32

_symmetry_Int_Tables_number  9
_chemical_formula_structural  SiO2
_chemical_formula_sum  Si4O8
_cell_volume  153.5177051391284
_cell_formula_units_Z  4
loop_
  _symmetry_equiv_pos_site_id
 _symmetry_equiv_pos_as_xyz
 1  'x, y, z'
loop_
 _atom_site_type_symbol
 _atom_site_label
 _atom_site_symmetry_multiplicity
 _atom_site_fract_x
 _atom_site_fract_y
 _atom_site_fract_z
 _atom_site_fract_occupancy
 O  O1  1  0.56689  0.48426  0.87993  1
 O  O2  1  0.87406  0.89848  0.22014  1
 O  O3  1  0.27373  0.78714  0.02913  1
 O  O4  1  0.15178  0.26594  0.03489  1
 O  O5  1  0.89848  0.87406  0.72014  1
 O  O6  1  0.78714  0.27373  0.52913  1
 O  O7  1  0.48426  0.56689  0.37993  1
 O  O8  1  0.26594  0.15178  0.53489  1
 Si  Si1  1  0.95499  0.05186  0.50179  1
 Si  Si2  1  0.37274  0.52786  0.08458  1
 Si  Si3  1  0.52786  0.37274  0.58458  1
 Si  Si4  1  0.05186  0.95499  0.00179  1
