CIF file written using JARVIS-Tools package.
data_Nb3Si
_symmetry_space_group_name_H-M  'Pm-3n'
_cell_length_a       5.1435
_cell_length_b       5.1435
_cell_length_c       5.1435
_cell_angle_alpha    90
_cell_angle_beta     90
_cell_angle_gamma    90

_symmetry_Int_Tables_number  223
_chemical_formula_structural  Nb3Si
_chemical_formula_sum  Nb6Si2
_cell_volume  136.07466084637966
_cell_formula_units_Z  2
loop_
  _symmetry_equiv_pos_site_id
 _symmetry_equiv_pos_as_xyz
 1  'x, y, z'
loop_
 _atom_site_type_symbol
 _atom_site_label
 _atom_site_symmetry_multiplicity
 _atom_site_fract_x
 _atom_site_fract_y
 _atom_site_fract_z
 _atom_site_fract_occupancy
 Nb  Nb1  1  0.00000  0.50000  0.25000  1
 Nb  Nb2  1  0.00000  0.50000  0.75000  1
 Nb  Nb3  1  0.50000  0.75000  0.00000  1
 Nb  Nb4  1  0.50000  0.25000  0.00000  1
 Nb  Nb5  1  0.75000  0.00000  0.50000  1
 Nb  Nb6  1  0.25000  0.00000  0.50000  1
 Si  Si1  1  0.50000  0.50000  0.50000  1
 Si  Si2  1  0.00000  0.00000  0.00000  1
