CIF file written using JARVIS-Tools package.
data_Ca3Ga4Ni4
_symmetry_space_group_name_H-M  'I-43m'
_cell_length_a       6.38807
_cell_length_b       6.38807
_cell_length_c       6.38807
_cell_angle_alpha    109.471
_cell_angle_beta     109.471
_cell_angle_gamma    109.471

_symmetry_Int_Tables_number  217
_chemical_formula_structural  Ca3Ga4Ni4
_chemical_formula_sum  Ca3Ga4Ni4
_cell_volume  200.6719033797401
_cell_formula_units_Z  1
loop_
  _symmetry_equiv_pos_site_id
 _symmetry_equiv_pos_as_xyz
 1  'x, y, z'
loop_
 _atom_site_type_symbol
 _atom_site_label
 _atom_site_symmetry_multiplicity
 _atom_site_fract_x
 _atom_site_fract_y
 _atom_site_fract_z
 _atom_site_fract_occupancy
 Ca  Ca1  1  0.00000  0.50000  0.50000  1
 Ca  Ca2  1  0.50000  0.00000  0.50000  1
 Ca  Ca3  1  0.50000  0.50000  0.00000  1
 Ga  Ga1  1  0.00000  0.00000  0.61069  1
 Ga  Ga2  1  0.61069  0.00000  0.00000  1
 Ga  Ga3  1  0.38931  0.38931  0.38931  1
 Ga  Ga4  1  0.00000  0.61069  0.00000  1
 Ni  Ni1  1  0.00000  0.24726  0.00000  1
 Ni  Ni2  1  0.24726  0.00000  0.00000  1
 Ni  Ni3  1  0.00000  0.00000  0.24726  1
 Ni  Ni4  1  0.75274  0.75274  0.75274  1
