CIF file written using JARVIS-Tools package.
data_YTiGe
_symmetry_space_group_name_H-M  'I4/mmm'
_cell_length_a       4.02967
_cell_length_b       4.02968
_cell_length_c       8.22011
_cell_angle_alpha    104.188
_cell_angle_beta     104.188
_cell_angle_gamma    90

_symmetry_Int_Tables_number  139
_chemical_formula_structural  YTiGe
_chemical_formula_sum  Y2Ti2Ge2
_cell_volume  125.20459283167453
_cell_formula_units_Z  2
loop_
  _symmetry_equiv_pos_site_id
 _symmetry_equiv_pos_as_xyz
 1  'x, y, z'
loop_
 _atom_site_type_symbol
 _atom_site_label
 _atom_site_symmetry_multiplicity
 _atom_site_fract_x
 _atom_site_fract_y
 _atom_site_fract_z
 _atom_site_fract_occupancy
 Ge  Ge1  1  0.12352  0.12352  0.24705  1
 Ge  Ge2  1  0.87648  0.87648  0.75295  1
 Ti  Ti1  1  -0.00000  0.50000  0.00000  1
 Ti  Ti2  1  0.50000  0.00000  0.00000  1
 Y  Y1  1  0.67416  0.67416  0.34831  1
 Y  Y2  1  0.32584  0.32584  0.65169  1
