CIF file written using JARVIS-Tools package.
data_Rb2Al2Sb2O7
_symmetry_space_group_name_H-M  'P-3m1'
_cell_length_a       5.7344
_cell_length_b       5.7344
_cell_length_c       8.35691
_cell_angle_alpha    90
_cell_angle_beta     90
_cell_angle_gamma    120

_symmetry_Int_Tables_number  164
_chemical_formula_structural  Rb2Al2Sb2O7
_chemical_formula_sum  Rb2Al2Sb2O7
_cell_volume  237.98624422834027
_cell_formula_units_Z  1
loop_
  _symmetry_equiv_pos_site_id
 _symmetry_equiv_pos_as_xyz
 1  'x, y, z'
loop_
 _atom_site_type_symbol
 _atom_site_label
 _atom_site_symmetry_multiplicity
 _atom_site_fract_x
 _atom_site_fract_y
 _atom_site_fract_z
 _atom_site_fract_occupancy
 Al  Al1  1  0.00000  0.00000  0.79308  1
 Al  Al2  1  0.00000  0.00000  0.20692  1
 O  O1  1  0.16804  0.33608  0.71674  1
 O  O2  1  0.33608  0.16804  0.28326  1
 O  O3  1  0.66392  0.83196  0.71674  1
 O  O4  1  0.16804  0.83196  0.71674  1
 O  O5  1  0.83196  0.66392  0.28326  1
 O  O6  1  0.00000  0.00000  0.00000  1
 O  O7  1  0.83196  0.16804  0.28326  1
 Rb  Rb1  1  0.33333  0.66667  0.40789  1
 Rb  Rb2  1  0.66667  0.33333  0.59211  1
 Sb  Sb1  1  0.66667  0.33333  0.15147  1
 Sb  Sb2  1  0.33333  0.66667  0.84853  1
