CIF file written using JARVIS-Tools package.
data_ZnCo4O8
_symmetry_space_group_name_H-M  'Cm'
_cell_length_a       2.82749
_cell_length_b       6.34769
_cell_length_c       7.0833
_cell_angle_alpha    77.432
_cell_angle_beta     78.4887
_cell_angle_gamma    77.1305

_symmetry_Int_Tables_number  8
_chemical_formula_structural  ZnCo4O8
_chemical_formula_sum  ZnCo4O8
_cell_volume  119.43368148481456
_cell_formula_units_Z  1
loop_
  _symmetry_equiv_pos_site_id
 _symmetry_equiv_pos_as_xyz
 1  'x, y, z'
loop_
 _atom_site_type_symbol
 _atom_site_label
 _atom_site_symmetry_multiplicity
 _atom_site_fract_x
 _atom_site_fract_y
 _atom_site_fract_z
 _atom_site_fract_occupancy
 Co  Co1  1  0.62499  0.18001  0.57011  1
 Co  Co2  1  0.14370  0.51072  0.20201  1
 Co  Co3  1  0.83160  0.48471  0.85220  1
 Co  Co4  1  0.35207  0.80437  0.49158  1
 O  O1  1  0.87621  0.64116  0.60653  1
 O  O2  1  0.45169  0.28872  0.80804  1
 O  O3  1  0.52633  0.69885  0.24859  1
 O  O4  1  0.09826  0.35041  0.45317  1
 O  O5  1  0.16554  -0.00591  0.67494  1
 O  O6  1  0.77788  0.33224  0.11214  1
 O  O7  1  0.81739  0.99394  0.37133  1
 O  O8  1  0.20817  0.64404  0.93973  1
 Zn  Zn1  1  0.42365  0.05285  0.10029  1
