CIF file written using JARVIS-Tools package.
data_Ti2CuS4
_symmetry_space_group_name_H-M  'Fd-3m'
_cell_length_a       7.08458
_cell_length_b       7.08458
_cell_length_c       7.08458
_cell_angle_alpha    60
_cell_angle_beta     60
_cell_angle_gamma    60

_symmetry_Int_Tables_number  227
_chemical_formula_structural  Ti2CuS4
_chemical_formula_sum  Ti4Cu2S8
_cell_volume  251.43560555493565
_cell_formula_units_Z  2
loop_
  _symmetry_equiv_pos_site_id
 _symmetry_equiv_pos_as_xyz
 1  'x, y, z'
loop_
 _atom_site_type_symbol
 _atom_site_label
 _atom_site_symmetry_multiplicity
 _atom_site_fract_x
 _atom_site_fract_y
 _atom_site_fract_z
 _atom_site_fract_occupancy
 Cu  Cu1  1  0.87500  0.87500  0.87500  1
 Cu  Cu2  1  0.12500  0.12500  0.12500  1
 S  S1  1  0.74495  0.74495  0.74495  1
 S  S2  1  0.25505  0.25505  0.73487  1
 S  S3  1  0.25505  0.73487  0.25505  1
 S  S4  1  0.73487  0.25505  0.25505  1
 S  S5  1  0.74495  0.26513  0.74495  1
 S  S6  1  0.26513  0.74495  0.74495  1
 S  S7  1  0.25505  0.25505  0.25505  1
 S  S8  1  0.74495  0.74495  0.26513  1
 Ti  Ti1  1  0.50000  0.00000  0.50000  1
 Ti  Ti2  1  -0.00000  0.50000  0.50000  1
 Ti  Ti3  1  0.50000  0.50000  -0.00000  1
 Ti  Ti4  1  0.50000  0.50000  0.50000  1
