CIF file written using JARVIS-Tools package.
data_MgSO4
_symmetry_space_group_name_H-M  'Cmcm'
_cell_length_a       4.73583
_cell_length_b       4.73583
_cell_length_c       6.46547
_cell_angle_alpha    90
_cell_angle_beta     90
_cell_angle_gamma    113.268

_symmetry_Int_Tables_number  63
_chemical_formula_structural  MgSO4
_chemical_formula_sum  Mg2S2O8
_cell_volume  133.2139353969834
_cell_formula_units_Z  2
loop_
  _symmetry_equiv_pos_site_id
 _symmetry_equiv_pos_as_xyz
 1  'x, y, z'
loop_
 _atom_site_type_symbol
 _atom_site_label
 _atom_site_symmetry_multiplicity
 _atom_site_fract_x
 _atom_site_fract_y
 _atom_site_fract_z
 _atom_site_fract_occupancy
 Mg  Mg1  1  0.00000  0.00000  0.00000  1
 Mg  Mg2  1  0.00000  0.00000  0.50000  1
 O  O1  1  0.22930  0.30221  0.75000  1
 O  O2  1  0.77070  0.69779  0.25000  1
 O  O3  1  0.30221  0.22930  0.25000  1
 O  O4  1  0.69779  0.77070  0.75000  1
 O  O5  1  0.25052  0.74948  0.93828  1
 O  O6  1  0.74948  0.25052  0.43828  1
 O  O7  1  0.74948  0.25052  0.06172  1
 O  O8  1  0.25052  0.74948  0.56172  1
 S  S1  1  0.35214  0.64786  0.75000  1
 S  S2  1  0.64786  0.35214  0.25000  1
