CIF file written using JARVIS-Tools package.
data_Sc
_symmetry_space_group_name_H-M  'I4/mcm'
_cell_length_a       5.36095
_cell_length_b       5.08688
_cell_length_c       5.08688
_cell_angle_alpha    73.8791
_cell_angle_beta     58.2012
_cell_angle_gamma    58.2012

_symmetry_Int_Tables_number  140
_chemical_formula_structural  Sc
_chemical_formula_sum  Sc4
_cell_volume  100.20360435166599
_cell_formula_units_Z  4
loop_
  _symmetry_equiv_pos_site_id
 _symmetry_equiv_pos_as_xyz
 1  'x, y, z'
loop_
 _atom_site_type_symbol
 _atom_site_label
 _atom_site_symmetry_multiplicity
 _atom_site_fract_x
 _atom_site_fract_y
 _atom_site_fract_z
 _atom_site_fract_occupancy
 Sc  Sc1  1  0.33565  0.82871  0.50000  1
 Sc  Sc2  1  0.16435  0.50000  0.17129  1
 Sc  Sc3  1  0.83565  0.50000  0.82871  1
 Sc  Sc4  1  0.66435  0.17129  0.50000  1
