CIF file written using JARVIS-Tools package.
data_Co3Se4
_symmetry_space_group_name_H-M  'C2/m'
_cell_length_a       3.55771
_cell_length_b       6.13374
_cell_length_c       6.20157
_cell_angle_alpha    117.532
_cell_angle_beta     106.659
_cell_angle_gamma    90.0075

_symmetry_Int_Tables_number  12
_chemical_formula_structural  Co3Se4
_chemical_formula_sum  Co3Se4
_cell_volume  113.55818457387015
_cell_formula_units_Z  1
loop_
  _symmetry_equiv_pos_site_id
 _symmetry_equiv_pos_as_xyz
 1  'x, y, z'
loop_
 _atom_site_type_symbol
 _atom_site_label
 _atom_site_symmetry_multiplicity
 _atom_site_fract_x
 _atom_site_fract_y
 _atom_site_fract_z
 _atom_site_fract_occupancy
 Co  Co1  1  0.76298  0.78363  0.52600  1
 Co  Co2  1  0.50000  0.50000  -0.00000  1
 Co  Co3  1  0.23702  0.21637  0.47400  1
 Se  Se1  1  0.13311  0.47524  0.26628  1
 Se  Se2  1  0.86689  0.52476  0.73372  1
 Se  Se3  1  0.37891  0.04604  0.75786  1
 Se  Se4  1  0.62109  0.95396  0.24214  1
