CIF file written using JARVIS-Tools package.
data_ZnMoF5
_symmetry_space_group_name_H-M  'P-1'
_cell_length_a       5.55352
_cell_length_b       5.27864
_cell_length_c       7.53825
_cell_angle_alpha    83.1214
_cell_angle_beta     70.2482
_cell_angle_gamma    105.439

_symmetry_Int_Tables_number  2
_chemical_formula_structural  ZnMoF5
_chemical_formula_sum  Zn2Mo2F0
_cell_volume  195.04584452177886
_cell_formula_units_Z  2
loop_
  _symmetry_equiv_pos_site_id
 _symmetry_equiv_pos_as_xyz
 1  'x, y, z'
loop_
 _atom_site_type_symbol
 _atom_site_label
 _atom_site_symmetry_multiplicity
 _atom_site_fract_x
 _atom_site_fract_y
 _atom_site_fract_z
 _atom_site_fract_occupancy
 F  F1  1  0.14004  0.87242  0.74427  1
 F  F2  1  0.86346  0.12571  0.25508  1
 F  F3  1  0.68167  0.84654  0.66346  1
 F  F4  1  0.90215  0.28780  0.86015  1
 F  F5  1  0.34246  0.30897  0.96347  1
 F  F6  1  0.68634  0.36022  0.55064  1
 F  F7  1  0.66103  0.68915  0.03587  1
 F  F8  1  0.31715  0.63794  0.44870  1
 F  F9  1  0.10135  0.71034  0.13918  1
 F  F10  1  0.32182  0.15162  0.33589  1
 Mo  Mo1  1  0.00174  -0.00094  -0.00033  1
 Mo  Mo2  1  0.50175  -0.00093  0.49968  1
 Zn  Zn1  1  0.27066  0.47768  0.23087  1
 Zn  Zn2  1  0.73279  0.52044  0.76849  1
