CIF file written using JARVIS-Tools package.
data_HoCu2O4
_symmetry_space_group_name_H-M  'I4_1/a'
_cell_length_a       5.65272
_cell_length_b       5.65258
_cell_length_c       6.25675
_cell_angle_alpha    116.853
_cell_angle_beta     116.854
_cell_angle_gamma    90.002

_symmetry_Int_Tables_number  88
_chemical_formula_structural  HoCu2O4
_chemical_formula_sum  Ho2Cu4O8
_cell_volume  153.807816002823
_cell_formula_units_Z  2
loop_
  _symmetry_equiv_pos_site_id
 _symmetry_equiv_pos_as_xyz
 1  'x, y, z'
loop_
 _atom_site_type_symbol
 _atom_site_label
 _atom_site_symmetry_multiplicity
 _atom_site_fract_x
 _atom_site_fract_y
 _atom_site_fract_z
 _atom_site_fract_occupancy
 Cu  Cu1  1  0.50000  0.00000  0.00000  1
 Cu  Cu2  1  0.50000  0.50000  -0.00000  1
 Cu  Cu3  1  0.00000  0.50000  0.50000  1
 Cu  Cu4  1  0.50000  0.50000  0.50000  1
 Ho  Ho1  1  0.87500  0.12500  0.75000  1
 Ho  Ho2  1  0.12500  0.87500  0.25000  1
 O  O1  1  0.72159  0.52996  0.85520  1
 O  O2  1  0.13362  0.82524  0.85520  1
 O  O3  1  0.27841  0.47004  0.14480  1
 O  O4  1  0.86638  0.17476  0.14480  1
 O  O5  1  0.52999  0.13362  0.35520  1
 O  O6  1  0.82521  0.72157  0.35520  1
 O  O7  1  0.17479  0.27843  0.64480  1
 O  O8  1  0.47001  0.86638  0.64480  1
