CIF file written using JARVIS-Tools package.
data_Na4GeO4
_symmetry_space_group_name_H-M  'P-1'
_cell_length_a       5.70798
_cell_length_b       5.72145
_cell_length_c       8.64532
_cell_angle_alpha    81.2919
_cell_angle_beta     71.2613
_cell_angle_gamma    68.176

_symmetry_Int_Tables_number  2
_chemical_formula_structural  Na4GeO4
_chemical_formula_sum  Na8Ge2O8
_cell_volume  248.0458569753357
_cell_formula_units_Z  2
loop_
  _symmetry_equiv_pos_site_id
 _symmetry_equiv_pos_as_xyz
 1  'x, y, z'
loop_
 _atom_site_type_symbol
 _atom_site_label
 _atom_site_symmetry_multiplicity
 _atom_site_fract_x
 _atom_site_fract_y
 _atom_site_fract_z
 _atom_site_fract_occupancy
 Ge  Ge1  1  0.65713  0.77917  0.74434  1
 Ge  Ge2  1  0.34287  0.22083  0.25566  1
 Na  Na1  1  0.10892  0.22799  0.68049  1
 Na  Na2  1  0.02062  0.76578  0.93447  1
 Na  Na3  1  0.55186  0.26001  0.89639  1
 Na  Na4  1  0.97938  0.23422  0.06553  1
 Na  Na5  1  0.25840  0.74321  0.51235  1
 Na  Na6  1  0.89108  0.77201  0.31951  1
 Na  Na7  1  0.44814  0.73999  0.10361  1
 Na  Na8  1  0.74160  0.25679  0.48765  1
 O  O1  1  0.66415  0.02833  0.13747  1
 O  O2  1  0.33585  0.97167  0.86253  1
 O  O3  1  0.79706  0.52445  0.87592  1
 O  O4  1  0.20294  0.47555  0.12408  1
 O  O5  1  0.86178  0.97079  0.69520  1
 O  O6  1  0.13822  0.02921  0.30480  1
 O  O7  1  0.64709  0.65482  0.57097  1
 O  O8  1  0.35291  0.34518  0.42903  1
