CIF file written using JARVIS-Tools package.
data_BaTm2F8
_symmetry_space_group_name_H-M  'C2/m'
_cell_length_a       4.23671
_cell_length_b       6.25611
_cell_length_c       6.25611
_cell_angle_alpha    112.942
_cell_angle_beta     95.1564
_cell_angle_gamma    95.1563

_symmetry_Int_Tables_number  12
_chemical_formula_structural  BaTm2F8
_chemical_formula_sum  BaTm2F8
_cell_volume  150.66811986809824
_cell_formula_units_Z  1
loop_
  _symmetry_equiv_pos_site_id
 _symmetry_equiv_pos_as_xyz
 1  'x, y, z'
loop_
 _atom_site_type_symbol
 _atom_site_label
 _atom_site_symmetry_multiplicity
 _atom_site_fract_x
 _atom_site_fract_y
 _atom_site_fract_z
 _atom_site_fract_occupancy
 Ba  Ba1  1  0.00000  0.00000  0.00000  1
 F  F1  1  0.00000  0.73753  0.26247  1
 F  F2  1  -0.00000  0.26247  0.73753  1
 F  F3  1  0.22525  0.39500  0.39500  1
 F  F4  1  0.43748  0.67112  0.95301  1
 F  F5  1  0.56252  0.04699  0.32888  1
 F  F6  1  0.56252  0.32888  0.04699  1
 F  F7  1  0.43748  0.95301  0.67112  1
 F  F8  1  0.77475  0.60500  0.60500  1
 Tm  Tm1  1  0.50000  0.32442  0.67558  1
 Tm  Tm2  1  0.50000  0.67558  0.32442  1
