CIF file written using JARVIS-Tools package.
data_K2TaF7
_symmetry_space_group_name_H-M  'P2_1/c'
_cell_length_a       5.80233
_cell_length_b       12.7058
_cell_length_c       8.50684
_cell_angle_alpha    90
_cell_angle_beta     90.0555
_cell_angle_gamma    90

_symmetry_Int_Tables_number  14
_chemical_formula_structural  K2TaF7
_chemical_formula_sum  K8Ta4F28
_cell_volume  627.1539112639605
_cell_formula_units_Z  4
loop_
  _symmetry_equiv_pos_site_id
 _symmetry_equiv_pos_as_xyz
 1  'x, y, z'
loop_
 _atom_site_type_symbol
 _atom_site_label
 _atom_site_symmetry_multiplicity
 _atom_site_fract_x
 _atom_site_fract_y
 _atom_site_fract_z
 _atom_site_fract_occupancy
 F  F1  1  0.95732  0.89321  0.61035  1
 F  F2  1  0.95626  0.75651  0.80335  1
 F  F3  1  0.04268  0.10679  0.38965  1
 F  F4  1  0.95626  0.74349  0.30335  1
 F  F5  1  0.18942  0.12161  -0.00299  1
 F  F6  1  0.21382  0.97523  0.21250  1
 F  F7  1  0.78618  0.47523  0.28750  1
 F  F8  1  0.78618  0.02477  0.78750  1
 F  F9  1  0.46908  0.10975  0.41069  1
 F  F10  1  0.21382  0.52477  0.71250  1
 F  F11  1  0.81058  0.62161  0.50299  1
 F  F12  1  0.81058  0.87839  0.00299  1
 F  F13  1  0.18942  0.37839  0.49701  1
 F  F14  1  0.56928  0.07637  0.12805  1
 F  F15  1  0.43072  0.57637  0.37195  1
 F  F16  1  0.43072  0.92363  0.87195  1
 F  F17  1  0.56928  0.42363  0.62805  1
 F  F18  1  0.53092  0.89025  0.58931  1
 F  F19  1  0.04268  0.39321  0.88965  1
 F  F20  1  0.46908  0.39025  0.91069  1
 F  F21  1  0.95732  0.60679  0.11035  1
 F  F22  1  0.53092  0.60975  0.08931  1
 F  F23  1  0.46455  0.24214  0.70609  1
 F  F24  1  0.53545  0.75786  0.29391  1
 F  F25  1  0.46455  0.25786  0.20609  1
 F  F26  1  0.04374  0.25651  0.69665  1
 F  F27  1  0.53545  0.74214  0.79391  1
 F  F28  1  0.04374  0.24349  0.19665  1
 K  K1  1  0.23520  0.71800  0.55625  1
 K  K2  1  0.23520  0.78200  0.05625  1
 K  K3  1  0.76480  0.28200  0.44375  1
 K  K4  1  0.23589  0.06028  0.67984  1
 K  K5  1  0.76411  0.56028  0.82016  1
 K  K6  1  0.76480  0.21800  0.94375  1
 K  K7  1  0.23589  0.43972  0.17984  1
 K  K8  1  0.76411  0.93972  0.32016  1
 Ta  Ta1  1  0.27570  0.12754  0.21960  1
 Ta  Ta2  1  0.27570  0.37246  0.71960  1
 Ta  Ta3  1  0.72430  0.87246  0.78040  1
 Ta  Ta4  1  0.72430  0.62754  0.28040  1
