CIF file written using JARVIS-Tools package.
data_SiP2O7
_symmetry_space_group_name_H-M  'P6_3/m'
_cell_length_a       4.73909
_cell_length_b       4.73909
_cell_length_c       12.1153
_cell_angle_alpha    90
_cell_angle_beta     90
_cell_angle_gamma    120

_symmetry_Int_Tables_number  176
_chemical_formula_structural  SiP2O7
_chemical_formula_sum  Si2P4O4
_cell_volume  235.6436923364077
_cell_formula_units_Z  2
loop_
  _symmetry_equiv_pos_site_id
 _symmetry_equiv_pos_as_xyz
 1  'x, y, z'
loop_
 _atom_site_type_symbol
 _atom_site_label
 _atom_site_symmetry_multiplicity
 _atom_site_fract_x
 _atom_site_fract_y
 _atom_site_fract_z
 _atom_site_fract_occupancy
 O  O1  1  0.93859  0.26887  0.08624  1
 O  O2  1  0.73113  0.66972  0.08624  1
 O  O3  1  0.33028  0.06141  0.08624  1
 O  O4  1  0.26887  0.33028  0.58624  1
 O  O5  1  0.26887  0.33028  0.91376  1
 O  O6  1  0.33333  0.66667  0.75000  1
 O  O7  1  0.66972  0.93859  0.91376  1
 O  O8  1  0.33028  0.06141  0.41376  1
 O  O9  1  0.06141  0.73113  0.91376  1
 O  O10  1  0.66667  0.33333  0.25000  1
 O  O11  1  0.66972  0.93859  0.58624  1
 O  O12  1  0.73113  0.66972  0.41376  1
 O  O13  1  0.93859  0.26887  0.41376  1
 O  O14  1  0.06141  0.73113  0.58624  1
 P  P1  1  0.33333  0.66667  0.62032  1
 P  P2  1  0.66667  0.33333  0.37968  1
 P  P3  1  0.66667  0.33333  0.12032  1
 P  P4  1  0.33333  0.66667  0.87968  1
 Si  Si1  1  0.00000  0.00000  0.50000  1
 Si  Si2  1  0.00000  0.00000  0.00000  1
