CIF file written using JARVIS-Tools package.
data_ZnS
_symmetry_space_group_name_H-M  'P6_3mc'
_cell_length_a       3.84072
_cell_length_b       3.84072
_cell_length_c       25.128
_cell_angle_alpha    90
_cell_angle_beta     90
_cell_angle_gamma    120

_symmetry_Int_Tables_number  186
_chemical_formula_structural  ZnS
_chemical_formula_sum  Zn8S8
_cell_volume  321.0063175528592
_cell_formula_units_Z  8
loop_
  _symmetry_equiv_pos_site_id
 _symmetry_equiv_pos_as_xyz
 1  'x, y, z'
loop_
 _atom_site_type_symbol
 _atom_site_label
 _atom_site_symmetry_multiplicity
 _atom_site_fract_x
 _atom_site_fract_y
 _atom_site_fract_z
 _atom_site_fract_occupancy
 S  S1  1  0.00000  0.00000  0.59370  1
 S  S2  1  0.33333  0.66667  0.96882  1
 S  S3  1  0.66667  0.33333  0.21857  1
 S  S4  1  0.33333  0.66667  0.34387  1
 S  S5  1  0.66667  0.33333  0.84387  1
 S  S6  1  0.66667  0.33333  0.46882  1
 S  S7  1  0.33333  0.66667  0.71857  1
 S  S8  1  0.00000  0.00000  0.09370  1
 Zn  Zn1  1  0.66667  0.33333  0.75004  1
 Zn  Zn2  1  0.66667  0.33333  0.12494  1
 Zn  Zn3  1  0.00000  0.00000  0.00006  1
 Zn  Zn4  1  0.33333  0.66667  0.87521  1
 Zn  Zn5  1  0.33333  0.66667  0.25004  1
 Zn  Zn6  1  0.66667  0.33333  0.37521  1
 Zn  Zn7  1  0.00000  0.00000  0.50006  1
 Zn  Zn8  1  0.33333  0.66667  0.62494  1
