CIF file written using JARVIS-Tools package.
data_YMgTl
_symmetry_space_group_name_H-M  'P-62m'
_cell_length_a       7.5422
_cell_length_b       7.5422
_cell_length_c       4.61902
_cell_angle_alpha    90
_cell_angle_beta     90
_cell_angle_gamma    120

_symmetry_Int_Tables_number  189
_chemical_formula_structural  YMgTl
_chemical_formula_sum  Y3Mg3Tl3
_cell_volume  227.54977122467997
_cell_formula_units_Z  3
loop_
  _symmetry_equiv_pos_site_id
 _symmetry_equiv_pos_as_xyz
 1  'x, y, z'
loop_
 _atom_site_type_symbol
 _atom_site_label
 _atom_site_symmetry_multiplicity
 _atom_site_fract_x
 _atom_site_fract_y
 _atom_site_fract_z
 _atom_site_fract_occupancy
 Mg  Mg1  1  0.75595  0.00000  0.50000  1
 Mg  Mg2  1  0.24405  0.24405  0.50000  1
 Mg  Mg3  1  0.00000  0.75595  0.50000  1
 Tl  Tl1  1  0.66667  0.33333  0.50000  1
 Tl  Tl2  1  0.00000  0.00000  0.00000  1
 Tl  Tl3  1  0.33333  0.66667  0.50000  1
 Y  Y1  1  0.57224  0.57224  0.00000  1
 Y  Y2  1  0.00000  0.42776  0.00000  1
 Y  Y3  1  0.42776  0.00000  0.00000  1
