CIF file written using JARVIS-Tools package.
data_MgTiPO5
_symmetry_space_group_name_H-M  'P1'
_cell_length_a       5.10977
_cell_length_b       5.47851
_cell_length_c       6.95201
_cell_angle_alpha    103.874
_cell_angle_beta     101.019
_cell_angle_gamma    105.565

_symmetry_Int_Tables_number  1
_chemical_formula_structural  MgTiPO5
_chemical_formula_sum  Mg2Ti2P2O0
_cell_volume  175.08450702969608
_cell_formula_units_Z  2
loop_
  _symmetry_equiv_pos_site_id
 _symmetry_equiv_pos_as_xyz
 1  'x, y, z'
loop_
 _atom_site_type_symbol
 _atom_site_label
 _atom_site_symmetry_multiplicity
 _atom_site_fract_x
 _atom_site_fract_y
 _atom_site_fract_z
 _atom_site_fract_occupancy
 Mg  Mg1  1  0.34671  0.22670  0.80400  1
 Mg  Mg2  1  0.67807  0.85273  0.32533  1
 O  O1  1  0.67177  0.62519  0.86300  1
 O  O2  1  0.97287  0.88265  0.67659  1
 O  O3  1  0.29973  0.31421  0.10373  1
 O  O4  1  0.05109  0.13622  0.34047  1
 O  O5  1  0.58255  0.24222  0.43400  1
 O  O6  1  0.31226  0.86387  0.13568  1
 O  O7  1  0.45132  0.73198  0.54022  1
 O  O8  1  0.67591  0.09817  0.87612  1
 O  O9  1  0.87485  0.58674  0.25649  1
 O  O10  1  0.09727  0.43367  0.75475  1
 P  P1  1  0.69241  0.83193  0.74460  1
 P  P2  1  0.31131  0.14398  0.25322  1
 Ti  Ti1  1  0.01147  0.50366  0.50014  1
 Ti  Ti2  1  -0.01169  0.49608  0.00814  1
