CIF file written using JARVIS-Tools package.
data_SiRh
_symmetry_space_group_name_H-M  'P2_13'
_cell_length_a       4.73893
_cell_length_b       4.73893
_cell_length_c       4.73893
_cell_angle_alpha    90
_cell_angle_beta     90
_cell_angle_gamma    90

_symmetry_Int_Tables_number  198
_chemical_formula_structural  SiRh
_chemical_formula_sum  Si4Rh4
_cell_volume  106.4244826728756
_cell_formula_units_Z  4
loop_
  _symmetry_equiv_pos_site_id
 _symmetry_equiv_pos_as_xyz
 1  'x, y, z'
loop_
 _atom_site_type_symbol
 _atom_site_label
 _atom_site_symmetry_multiplicity
 _atom_site_fract_x
 _atom_site_fract_y
 _atom_site_fract_z
 _atom_site_fract_occupancy
 Rh  Rh1  1  0.84602  0.65398  0.34602  1
 Rh  Rh2  1  0.65398  0.34602  0.84602  1
 Rh  Rh3  1  0.34602  0.84602  0.65398  1
 Rh  Rh4  1  0.15398  0.15398  0.15398  1
 Si  Si1  1  0.15909  0.34091  0.65909  1
 Si  Si2  1  0.34091  0.65909  0.15909  1
 Si  Si3  1  0.65909  0.15909  0.34091  1
 Si  Si4  1  0.84091  0.84091  0.84091  1
