CIF file written using JARVIS-Tools package.
data_K2ErF5
_symmetry_space_group_name_H-M  'Pnma'
_cell_length_a       6.54829
_cell_length_b       7.21183
_cell_length_c       10.7346
_cell_angle_alpha    90
_cell_angle_beta     90
_cell_angle_gamma    90

_symmetry_Int_Tables_number  62
_chemical_formula_structural  K2ErF5
_chemical_formula_sum  K8Er4F20
_cell_volume  506.9427351536554
_cell_formula_units_Z  4
loop_
  _symmetry_equiv_pos_site_id
 _symmetry_equiv_pos_as_xyz
 1  'x, y, z'
loop_
 _atom_site_type_symbol
 _atom_site_label
 _atom_site_symmetry_multiplicity
 _atom_site_fract_x
 _atom_site_fract_y
 _atom_site_fract_z
 _atom_site_fract_occupancy
 Er  Er1  1  0.06488  0.99500  0.00309  1
 Er  Er2  1  0.43512  0.99500  0.50309  1
 Er  Er3  1  0.56488  0.49500  0.49691  1
 Er  Er4  1  0.93512  0.49500  0.99691  1
 F  F1  1  0.34977  0.70894  0.57404  1
 F  F2  1  0.37312  0.49500  0.33146  1
 F  F3  1  0.34150  0.99500  0.30747  1
 F  F4  1  0.15023  0.70894  0.07404  1
 F  F5  1  0.89678  0.49500  0.48758  1
 F  F6  1  0.15850  0.99500  0.80747  1
 F  F7  1  0.84150  0.49500  0.19253  1
 F  F8  1  0.34977  0.28106  0.57404  1
 F  F9  1  0.62688  0.99500  0.66854  1
 F  F10  1  0.12688  0.49500  0.83146  1
 F  F11  1  0.87312  0.99500  0.16854  1
 F  F12  1  0.65850  0.49500  0.69253  1
 F  F13  1  0.39678  0.99500  0.01242  1
 F  F14  1  0.65023  0.78106  0.42596  1
 F  F15  1  0.10322  0.99500  0.51242  1
 F  F16  1  0.65023  0.20894  0.42596  1
 F  F17  1  0.15023  0.28106  0.07404  1
 F  F18  1  0.84977  0.78106  0.92596  1
 F  F19  1  0.84977  0.20894  0.92596  1
 F  F20  1  0.60322  0.49500  0.98758  1
 K  K1  1  0.03882  0.24864  0.32934  1
 K  K2  1  0.96118  0.74864  0.67066  1
 K  K3  1  0.46118  0.24864  0.82934  1
 K  K4  1  0.53882  0.74864  0.17066  1
 K  K5  1  0.03882  0.74136  0.32934  1
 K  K6  1  0.96118  0.24136  0.67066  1
 K  K7  1  0.46118  0.74136  0.82934  1
 K  K8  1  0.53882  0.24136  0.17066  1
