CIF file written using JARVIS-Tools package.
data_AgBiSCl2
_symmetry_space_group_name_H-M  'Cmcm'
_cell_length_a       4.03715
_cell_length_b       7.18954
_cell_length_c       8.73018
_cell_angle_alpha    90
_cell_angle_beta     90
_cell_angle_gamma    106.306

_symmetry_Int_Tables_number  63
_chemical_formula_structural  AgBiSCl2
_chemical_formula_sum  Ag2Bi2S2Cl4
_cell_volume  243.20284498445002
_cell_formula_units_Z  2
loop_
  _symmetry_equiv_pos_site_id
 _symmetry_equiv_pos_as_xyz
 1  'x, y, z'
loop_
 _atom_site_type_symbol
 _atom_site_label
 _atom_site_symmetry_multiplicity
 _atom_site_fract_x
 _atom_site_fract_y
 _atom_site_fract_z
 _atom_site_fract_occupancy
 Ag  Ag1  1  0.00000  0.00000  0.50000  1
 Ag  Ag2  1  0.00000  0.00000  0.00000  1
 Bi  Bi1  1  0.28755  0.57510  0.75000  1
 Bi  Bi2  1  0.71245  0.42490  0.25000  1
 Cl  Cl1  1  0.65820  0.31640  0.56436  1
 Cl  Cl2  1  0.34180  0.68360  0.43564  1
 Cl  Cl3  1  0.34180  0.68360  0.06436  1
 Cl  Cl4  1  0.65820  0.31640  0.93564  1
 S  S1  1  0.91905  0.83811  0.75000  1
 S  S2  1  0.08095  0.16189  0.25000  1
