CIF file written using JARVIS-Tools package.
data_TmCuAs2
_symmetry_space_group_name_H-M  'P4/nmm'
_cell_length_a       3.88874
_cell_length_b       3.88874
_cell_length_c       9.76468
_cell_angle_alpha    90
_cell_angle_beta     90
_cell_angle_gamma    90

_symmetry_Int_Tables_number  129
_chemical_formula_structural  TmCuAs2
_chemical_formula_sum  Tm2Cu2As4
_cell_volume  147.66449514606816
_cell_formula_units_Z  2
loop_
  _symmetry_equiv_pos_site_id
 _symmetry_equiv_pos_as_xyz
 1  'x, y, z'
loop_
 _atom_site_type_symbol
 _atom_site_label
 _atom_site_symmetry_multiplicity
 _atom_site_fract_x
 _atom_site_fract_y
 _atom_site_fract_z
 _atom_site_fract_occupancy
 As  As1  1  0.50000  0.50000  0.00000  1
 As  As2  1  0.00000  0.00000  0.00000  1
 As  As3  1  0.50000  0.00000  0.33415  1
 As  As4  1  0.00000  0.50000  0.66585  1
 Cu  Cu1  1  0.00000  0.00000  0.50000  1
 Cu  Cu2  1  0.50000  0.50000  0.50000  1
 Tm  Tm1  1  0.50000  0.00000  0.76463  1
 Tm  Tm2  1  0.00000  0.50000  0.23537  1
