CIF file written using JARVIS-Tools package.
data_U3O8
_symmetry_space_group_name_H-M  'P-62m'
_cell_length_a       6.82883
_cell_length_b       6.82883
_cell_length_c       4.16248
_cell_angle_alpha    90
_cell_angle_beta     90
_cell_angle_gamma    120

_symmetry_Int_Tables_number  189
_chemical_formula_structural  U3O8
_chemical_formula_sum  U3O8
_cell_volume  168.10301425895452
_cell_formula_units_Z  1
loop_
  _symmetry_equiv_pos_site_id
 _symmetry_equiv_pos_as_xyz
 1  'x, y, z'
loop_
 _atom_site_type_symbol
 _atom_site_label
 _atom_site_symmetry_multiplicity
 _atom_site_fract_x
 _atom_site_fract_y
 _atom_site_fract_z
 _atom_site_fract_occupancy
 O  O1  1  0.63919  -0.00000  0.50000  1
 O  O2  1  0.36081  0.36081  0.50000  1
 O  O3  1  -0.00000  0.63919  0.50000  1
 O  O4  1  0.33333  0.66667  0.00000  1
 O  O5  1  0.66667  0.33333  0.00000  1
 O  O6  1  0.00000  0.25391  0.00000  1
 O  O7  1  0.74609  0.74609  0.00000  1
 O  O8  1  0.25391  0.00000  0.00000  1
 U  U1  1  0.64736  -0.00000  0.00000  1
 U  U2  1  0.35264  0.35264  0.00000  1
 U  U3  1  -0.00000  0.64736  0.00000  1
