CIF file written using JARVIS-Tools package.
data_TaAlO4
_symmetry_space_group_name_H-M  'Cmmm'
_cell_length_a       3.01021
_cell_length_b       4.58827
_cell_length_c       4.58827
_cell_angle_alpha    91.018
_cell_angle_beta     90
_cell_angle_gamma    90

_symmetry_Int_Tables_number  65
_chemical_formula_structural  TaAlO4
_chemical_formula_sum  TaAlO4
_cell_volume  63.36181496471107
_cell_formula_units_Z  1
loop_
  _symmetry_equiv_pos_site_id
 _symmetry_equiv_pos_as_xyz
 1  'x, y, z'
loop_
 _atom_site_type_symbol
 _atom_site_label
 _atom_site_symmetry_multiplicity
 _atom_site_fract_x
 _atom_site_fract_y
 _atom_site_fract_z
 _atom_site_fract_occupancy
 Al  Al1  1  0.50000  0.50000  0.50000  1
 O  O1  1  0.00000  0.69171  0.69171  1
 O  O2  1  0.50000  0.20172  0.79828  1
 O  O3  1  0.50000  0.79828  0.20172  1
 O  O4  1  0.00000  0.30829  0.30829  1
 Ta  Ta1  1  0.00000  0.00000  0.00000  1
