CIF file written using JARVIS-Tools package.
data_ZnCoPO5
_symmetry_space_group_name_H-M  'P-1'
_cell_length_a       5.25748
_cell_length_b       5.32753
_cell_length_c       6.82842
_cell_angle_alpha    106.71
_cell_angle_beta     106.517
_cell_angle_gamma    97.1437

_symmetry_Int_Tables_number  2
_chemical_formula_structural  ZnCoPO5
_chemical_formula_sum  Zn2Co2P2O0
_cell_volume  171.14347319604326
_cell_formula_units_Z  2
loop_
  _symmetry_equiv_pos_site_id
 _symmetry_equiv_pos_as_xyz
 1  'x, y, z'
loop_
 _atom_site_type_symbol
 _atom_site_label
 _atom_site_symmetry_multiplicity
 _atom_site_fract_x
 _atom_site_fract_y
 _atom_site_fract_z
 _atom_site_fract_occupancy
 Co  Co1  1  0.50508  0.99575  0.48544  1
 Co  Co2  1  0.50508  0.99575  0.98545  1
 O  O1  1  0.26362  0.23475  0.05149  1
 O  O2  1  0.16769  0.11747  0.36464  1
 O  O3  1  0.74652  0.75674  0.91939  1
 O  O4  1  0.84247  0.87402  0.60624  1
 O  O5  1  0.78395  0.38332  0.59744  1
 O  O6  1  0.19229  0.69571  0.84762  1
 O  O7  1  0.22621  0.60818  0.37346  1
 O  O8  1  0.81787  0.29579  0.12328  1
 O  O9  1  0.43619  0.09061  0.73574  1
 O  O10  1  0.57396  0.90088  0.23514  1
 P  P1  1  0.12893  0.30857  0.22907  1
 P  P2  1  0.88122  0.68293  0.74182  1
 Zn  Zn1  1  0.86679  0.71997  0.24646  1
 Zn  Zn2  1  0.14340  0.27157  0.72445  1
