CIF file written using JARVIS-Tools package.
data_Li3RuO4
_symmetry_space_group_name_H-M  'P2/c'
_cell_length_a       5.07726
_cell_length_b       5.87767
_cell_length_c       5.10063
_cell_angle_alpha    90
_cell_angle_beta     109.895
_cell_angle_gamma    90

_symmetry_Int_Tables_number  13
_chemical_formula_structural  Li3RuO4
_chemical_formula_sum  Li6Ru2O8
_cell_volume  143.13081644638746
_cell_formula_units_Z  2
loop_
  _symmetry_equiv_pos_site_id
 _symmetry_equiv_pos_as_xyz
 1  'x, y, z'
loop_
 _atom_site_type_symbol
 _atom_site_label
 _atom_site_symmetry_multiplicity
 _atom_site_fract_x
 _atom_site_fract_y
 _atom_site_fract_z
 _atom_site_fract_occupancy
 Li  Li1  1  0.75000  0.86578  0.50000  1
 Li  Li2  1  0.75000  0.39555  0.50000  1
 Li  Li3  1  0.75000  0.61961  0.00000  1
 Li  Li4  1  0.25000  0.60445  0.50000  1
 Li  Li5  1  0.25000  0.13422  0.50000  1
 Li  Li6  1  0.25000  0.38039  0.00000  1
 O  O1  1  0.00286  0.88672  0.22872  1
 O  O2  1  0.50286  0.11328  0.22872  1
 O  O3  1  0.51701  0.36234  0.75725  1
 O  O4  1  0.98299  0.36234  0.24275  1
 O  O5  1  0.01701  0.63766  0.75725  1
 O  O6  1  0.48299  0.63766  0.24275  1
 O  O7  1  0.49714  0.88672  0.77128  1
 O  O8  1  0.99714  0.11328  0.77128  1
 Ru  Ru1  1  0.25000  0.85697  0.00000  1
 Ru  Ru2  1  0.75000  0.14303  0.00000  1
