CIF file written using JARVIS-Tools package.
data_Er2Ni3B6
_symmetry_space_group_name_H-M  'Cmmm'
_cell_length_a       3.47259
_cell_length_b       5.76956
_cell_length_c       5.76956
_cell_angle_alpha    96.6037
_cell_angle_beta     90
_cell_angle_gamma    90

_symmetry_Int_Tables_number  65
_chemical_formula_structural  Er2Ni3B6
_chemical_formula_sum  Er2Ni3B6
_cell_volume  114.82834535468372
_cell_formula_units_Z  1
loop_
  _symmetry_equiv_pos_site_id
 _symmetry_equiv_pos_as_xyz
 1  'x, y, z'
loop_
 _atom_site_type_symbol
 _atom_site_label
 _atom_site_symmetry_multiplicity
 _atom_site_fract_x
 _atom_site_fract_y
 _atom_site_fract_z
 _atom_site_fract_occupancy
 B  B1  1  0.50000  0.38720  0.38720  1
 B  B2  1  0.50000  0.61280  0.61280  1
 B  B3  1  0.50000  0.38782  0.08581  1
 B  B4  1  0.50000  0.61218  0.91419  1
 B  B5  1  0.50000  0.08581  0.38782  1
 B  B6  1  0.50000  0.91419  0.61218  1
 Er  Er1  1  0.00000  0.72512  0.27488  1
 Er  Er2  1  0.00000  0.27488  0.72512  1
 Ni  Ni1  1  0.00000  0.77262  0.77262  1
 Ni  Ni2  1  0.00000  0.22738  0.22738  1
 Ni  Ni3  1  0.50000  0.00000  0.00000  1
