CIF file written using JARVIS-Tools package.
data_TiAl2
_symmetry_space_group_name_H-M  'Cmmm'
_cell_length_a       3.9415
_cell_length_b       4.01196
_cell_length_c       6.39713
_cell_angle_alpha    90
_cell_angle_beta     107.943
_cell_angle_gamma    90

_symmetry_Int_Tables_number  65
_chemical_formula_structural  TiAl2
_chemical_formula_sum  Ti2Al4
_cell_volume  96.23893568986618
_cell_formula_units_Z  2
loop_
  _symmetry_equiv_pos_site_id
 _symmetry_equiv_pos_as_xyz
 1  'x, y, z'
loop_
 _atom_site_type_symbol
 _atom_site_label
 _atom_site_symmetry_multiplicity
 _atom_site_fract_x
 _atom_site_fract_y
 _atom_site_fract_z
 _atom_site_fract_occupancy
 Al  Al1  1  0.00000  0.00000  0.00000  1
 Al  Al2  1  0.50000  0.50000  0.00000  1
 Al  Al3  1  0.82685  0.50000  0.65371  1
 Al  Al4  1  0.17315  0.50000  0.34629  1
 Ti  Ti1  1  0.65609  0.00000  0.31218  1
 Ti  Ti2  1  0.34391  0.00000  0.68782  1
