CIF file written using JARVIS-Tools package.
data_Ca3Hg2
_symmetry_space_group_name_H-M  'P4/mbm'
_cell_length_a       8.50395
_cell_length_b       8.50395
_cell_length_c       4.11488
_cell_angle_alpha    90
_cell_angle_beta     90
_cell_angle_gamma    90

_symmetry_Int_Tables_number  127
_chemical_formula_structural  Ca3Hg2
_chemical_formula_sum  Ca6Hg4
_cell_volume  297.5767540313354
_cell_formula_units_Z  2
loop_
  _symmetry_equiv_pos_site_id
 _symmetry_equiv_pos_as_xyz
 1  'x, y, z'
loop_
 _atom_site_type_symbol
 _atom_site_label
 _atom_site_symmetry_multiplicity
 _atom_site_fract_x
 _atom_site_fract_y
 _atom_site_fract_z
 _atom_site_fract_occupancy
 Ca  Ca1  1  0.00000  0.00000  0.00000  1
 Ca  Ca2  1  0.50000  0.50000  0.00000  1
 Ca  Ca3  1  0.65406  0.15406  0.50000  1
 Ca  Ca4  1  0.15406  0.34594  0.50000  1
 Ca  Ca5  1  0.84594  0.65406  0.50000  1
 Ca  Ca6  1  0.34594  0.84594  0.50000  1
 Hg  Hg1  1  0.85594  0.35594  0.00000  1
 Hg  Hg2  1  0.35594  0.14406  0.00000  1
 Hg  Hg3  1  0.64406  0.85594  0.00000  1
 Hg  Hg4  1  0.14406  0.64406  0.00000  1
