CIF file written using JARVIS-Tools package.
data_Sm3Ir
_symmetry_space_group_name_H-M  'Pnma'
_cell_length_a       6.44277
_cell_length_b       7.26693
_cell_length_c       9.58817
_cell_angle_alpha    90
_cell_angle_beta     90
_cell_angle_gamma    90

_symmetry_Int_Tables_number  62
_chemical_formula_structural  Sm3Ir
_chemical_formula_sum  Sm2Ir4
_cell_volume  448.9099996497326
_cell_formula_units_Z  4
loop_
  _symmetry_equiv_pos_site_id
 _symmetry_equiv_pos_as_xyz
 1  'x, y, z'
loop_
 _atom_site_type_symbol
 _atom_site_label
 _atom_site_symmetry_multiplicity
 _atom_site_fract_x
 _atom_site_fract_y
 _atom_site_fract_z
 _atom_site_fract_occupancy
 Ir  Ir1  1  0.94169  0.38212  0.25000  1
 Ir  Ir2  1  0.44169  0.11788  0.75000  1
 Ir  Ir3  1  0.55831  0.88212  0.25000  1
 Ir  Ir4  1  0.05831  0.61788  0.75000  1
 Sm  Sm1  1  0.13806  0.03313  0.25000  1
 Sm  Sm2  1  0.63806  0.46687  0.75000  1
 Sm  Sm3  1  0.36194  0.53313  0.25000  1
 Sm  Sm4  1  0.86194  0.96687  0.75000  1
 Sm  Sm5  1  0.67023  0.17798  0.06297  1
 Sm  Sm6  1  0.17023  0.32202  0.93703  1
 Sm  Sm7  1  0.82977  0.67798  0.43703  1
 Sm  Sm8  1  0.32977  0.82202  0.56297  1
 Sm  Sm9  1  0.32977  0.82202  0.93703  1
 Sm  Sm10  1  0.82977  0.67798  0.06297  1
 Sm  Sm11  1  0.17023  0.32202  0.56297  1
 Sm  Sm12  1  0.67023  0.17798  0.43703  1
