CIF file written using JARVIS-Tools package.
data_BaAl2O4
_symmetry_space_group_name_H-M  'P6_322'
_cell_length_a       5.24793
_cell_length_b       5.24793
_cell_length_c       8.95811
_cell_angle_alpha    90
_cell_angle_beta     90
_cell_angle_gamma    120

_symmetry_Int_Tables_number  182
_chemical_formula_structural  BaAl2O4
_chemical_formula_sum  Ba2Al4O8
_cell_volume  213.6602906380557
_cell_formula_units_Z  2
loop_
  _symmetry_equiv_pos_site_id
 _symmetry_equiv_pos_as_xyz
 1  'x, y, z'
loop_
 _atom_site_type_symbol
 _atom_site_label
 _atom_site_symmetry_multiplicity
 _atom_site_fract_x
 _atom_site_fract_y
 _atom_site_fract_z
 _atom_site_fract_occupancy
 Al  Al1  1  0.33333  0.66667  0.55374  1
 Al  Al2  1  0.66667  0.33333  0.05374  1
 Al  Al3  1  0.66667  0.33333  0.44626  1
 Al  Al4  1  0.33333  0.66667  0.94626  1
 Ba  Ba1  1  0.00000  0.00000  0.25000  1
 Ba  Ba2  1  0.00000  0.00000  0.75000  1
 O  O1  1  0.35277  0.35277  0.50000  1
 O  O2  1  -0.00000  0.64723  0.50000  1
 O  O3  1  0.00000  0.35277  0.00000  1
 O  O4  1  0.33333  0.66667  0.75000  1
 O  O5  1  0.64723  0.64723  0.00000  1
 O  O6  1  0.64723  -0.00000  0.50000  1
 O  O7  1  0.66667  0.33333  0.25000  1
 O  O8  1  0.35277  0.00000  0.00000  1
