CIF file written using JARVIS-Tools package.
data_Pr3IrO7
_symmetry_space_group_name_H-M  'Cmcm'
_cell_length_a       6.702
_cell_length_b       6.702
_cell_length_c       7.60963
_cell_angle_alpha    90
_cell_angle_beta     90
_cell_angle_gamma    112.103

_symmetry_Int_Tables_number  63
_chemical_formula_structural  Pr3IrO7
_chemical_formula_sum  Pr6Ir2O4
_cell_volume  316.6796991504097
_cell_formula_units_Z  2
loop_
  _symmetry_equiv_pos_site_id
 _symmetry_equiv_pos_as_xyz
 1  'x, y, z'
loop_
 _atom_site_type_symbol
 _atom_site_label
 _atom_site_symmetry_multiplicity
 _atom_site_fract_x
 _atom_site_fract_y
 _atom_site_fract_z
 _atom_site_fract_occupancy
 Ir  Ir1  1  0.50000  0.50000  0.50000  1
 Ir  Ir2  1  0.50000  0.50000  0.00000  1
 O  O1  1  0.81105  0.55956  0.04160  1
 O  O2  1  0.41024  0.41024  0.25000  1
 O  O3  1  0.10265  0.84038  0.75000  1
 O  O4  1  0.89735  0.15962  0.25000  1
 O  O5  1  0.84038  0.10265  0.75000  1
 O  O6  1  0.15962  0.89735  0.25000  1
 O  O7  1  0.18895  0.44044  0.95840  1
 O  O8  1  0.81105  0.55956  0.45840  1
 O  O9  1  0.44044  0.18895  0.95840  1
 O  O10  1  0.18895  0.44044  0.54160  1
 O  O11  1  0.55956  0.81105  0.45840  1
 O  O12  1  0.55956  0.81105  0.04160  1
 O  O13  1  0.44044  0.18895  0.54160  1
 O  O14  1  0.58976  0.58976  0.75000  1
 Pr  Pr1  1  0.00000  0.00000  0.00000  1
 Pr  Pr2  1  0.00000  0.00000  0.50000  1
 Pr  Pr3  1  0.91061  0.46830  0.75000  1
 Pr  Pr4  1  0.08939  0.53170  0.25000  1
 Pr  Pr5  1  0.46830  0.91061  0.75000  1
 Pr  Pr6  1  0.53170  0.08939  0.25000  1
