CIF file written using JARVIS-Tools package.
data_CaCl2
_symmetry_space_group_name_H-M  'Pnma'
_cell_length_a       4.38354
_cell_length_b       7.21809
_cell_length_c       8.67643
_cell_angle_alpha    90
_cell_angle_beta     90
_cell_angle_gamma    90

_symmetry_Int_Tables_number  62
_chemical_formula_structural  CaCl2
_chemical_formula_sum  Ca4Cl8
_cell_volume  274.52924967172754
_cell_formula_units_Z  4
loop_
  _symmetry_equiv_pos_site_id
 _symmetry_equiv_pos_as_xyz
 1  'x, y, z'
loop_
 _atom_site_type_symbol
 _atom_site_label
 _atom_site_symmetry_multiplicity
 _atom_site_fract_x
 _atom_site_fract_y
 _atom_site_fract_z
 _atom_site_fract_occupancy
 Ca  Ca1  1  0.25000  0.75751  0.89669  1
 Ca  Ca2  1  0.25000  0.25751  0.60331  1
 Ca  Ca3  1  0.75000  0.24249  0.10331  1
 Ca  Ca4  1  0.75000  0.74249  0.39669  1
 Cl  Cl1  1  0.75000  0.14120  0.41969  1
 Cl  Cl2  1  0.25000  0.35880  0.91969  1
 Cl  Cl3  1  0.25000  -0.14120  0.58031  1
 Cl  Cl4  1  0.75000  0.64120  0.08031  1
 Cl  Cl5  1  0.75000  0.01290  0.83965  1
 Cl  Cl6  1  0.25000  -0.01290  0.16035  1
 Cl  Cl7  1  0.75000  0.51290  0.66035  1
 Cl  Cl8  1  0.25000  0.48710  0.33965  1
