CIF file written using JARVIS-Tools package.
data_ZnCu2SnSe4
_symmetry_space_group_name_H-M  'I-4'
_cell_length_a       5.75636
_cell_length_b       5.75636
_cell_length_c       11.5087
_cell_angle_alpha    90
_cell_angle_beta     90
_cell_angle_gamma    90

_symmetry_Int_Tables_number  82
_chemical_formula_structural  ZnCu2SnSe4
_chemical_formula_sum  Zn2Cu4Sn2Se8
_cell_volume  381.35012722862814
_cell_formula_units_Z  2
loop_
  _symmetry_equiv_pos_site_id
 _symmetry_equiv_pos_as_xyz
 1  'x, y, z'
loop_
 _atom_site_type_symbol
 _atom_site_label
 _atom_site_symmetry_multiplicity
 _atom_site_fract_x
 _atom_site_fract_y
 _atom_site_fract_z
 _atom_site_fract_occupancy
 Cu  Cu1  1  0.00000  0.00000  0.00000  1
 Cu  Cu2  1  0.50000  0.50000  0.50000  1
 Cu  Cu3  1  0.00000  0.50000  0.75000  1
 Cu  Cu4  1  0.50000  0.00000  0.25000  1
 Se  Se1  1  0.76821  0.26007  0.88032  1
 Se  Se2  1  0.23179  0.73993  0.88032  1
 Se  Se3  1  0.26007  0.23179  0.11968  1
 Se  Se4  1  0.73993  0.76821  0.11968  1
 Se  Se5  1  0.26821  0.76007  0.38032  1
 Se  Se6  1  0.73179  0.23993  0.38032  1
 Se  Se7  1  0.76007  0.73179  0.61968  1
 Se  Se8  1  0.23993  0.26821  0.61968  1
 Sn  Sn1  1  0.50000  0.00000  0.75000  1
 Sn  Sn2  1  0.00000  0.50000  0.25000  1
 Zn  Zn1  1  0.50000  0.50000  0.00000  1
 Zn  Zn2  1  0.00000  0.00000  0.50000  1
