CIF file written using JARVIS-Tools package.
data_TiTeAs
_symmetry_space_group_name_H-M  'Immm'
_cell_length_a       3.60876
_cell_length_b       5.3431
_cell_length_c       7.19021
_cell_angle_alpha    111.811
_cell_angle_beta     104.534
_cell_angle_gamma    89.9999

_symmetry_Int_Tables_number  71
_chemical_formula_structural  TiTeAs
_chemical_formula_sum  Ti2Te2As2
_cell_volume  123.92495362785615
_cell_formula_units_Z  2
loop_
  _symmetry_equiv_pos_site_id
 _symmetry_equiv_pos_as_xyz
 1  'x, y, z'
loop_
 _atom_site_type_symbol
 _atom_site_label
 _atom_site_symmetry_multiplicity
 _atom_site_fract_x
 _atom_site_fract_y
 _atom_site_fract_z
 _atom_site_fract_occupancy
 As  As1  1  -0.00000  0.75116  -0.00000  1
 As  As2  1  0.00000  0.24884  0.00000  1
 Te  Te1  1  0.70897  0.70897  0.41794  1
 Te  Te2  1  0.29103  0.29103  0.58206  1
 Ti  Ti1  1  0.38133  0.88133  0.76267  1
 Ti  Ti2  1  0.61867  0.11867  0.23733  1
