CIF file written using JARVIS-Tools package.
data_ErHO2
_symmetry_space_group_name_H-M  'P2_1/m'
_cell_length_a       4.28296
_cell_length_b       3.5909
_cell_length_c       5.90728
_cell_angle_alpha    90
_cell_angle_beta     109.252
_cell_angle_gamma    90

_symmetry_Int_Tables_number  11
_chemical_formula_structural  ErHO2
_chemical_formula_sum  Er2H2O4
_cell_volume  85.77128513123938
_cell_formula_units_Z  2
loop_
  _symmetry_equiv_pos_site_id
 _symmetry_equiv_pos_as_xyz
 1  'x, y, z'
loop_
 _atom_site_type_symbol
 _atom_site_label
 _atom_site_symmetry_multiplicity
 _atom_site_fract_x
 _atom_site_fract_y
 _atom_site_fract_z
 _atom_site_fract_occupancy
 Er  Er1  1  0.83335  0.75000  0.18928  1
 Er  Er2  1  0.16665  0.25000  0.81072  1
 H  H1  1  0.48695  0.75000  0.58052  1
 H  H2  1  0.51305  0.25000  0.41948  1
 O  O1  1  0.26694  0.75000  0.05261  1
 O  O2  1  0.73306  0.25000  0.94739  1
 O  O3  1  0.25195  0.75000  0.56199  1
 O  O4  1  0.74805  0.25000  0.43801  1
