CIF file written using JARVIS-Tools package.
data_Na8NO3
_symmetry_space_group_name_H-M  'Pm-3m'
_cell_length_a       5.61412
_cell_length_b       5.61412
_cell_length_c       5.61412
_cell_angle_alpha    90
_cell_angle_beta     90
_cell_angle_gamma    90

_symmetry_Int_Tables_number  221
_chemical_formula_structural  Na8NO3
_chemical_formula_sum  Na8NO3
_cell_volume  176.94765255799885
_cell_formula_units_Z  1
loop_
  _symmetry_equiv_pos_site_id
 _symmetry_equiv_pos_as_xyz
 1  'x, y, z'
loop_
 _atom_site_type_symbol
 _atom_site_label
 _atom_site_symmetry_multiplicity
 _atom_site_fract_x
 _atom_site_fract_y
 _atom_site_fract_z
 _atom_site_fract_occupancy
 N  N1  1  0.00000  0.00000  0.00000  1
 Na  Na1  1  0.25324  0.25324  0.25324  1
 Na  Na2  1  0.74676  0.74676  0.25324  1
 Na  Na3  1  0.74676  0.25324  0.74676  1
 Na  Na4  1  0.25324  0.74676  0.74676  1
 Na  Na5  1  0.25324  0.25324  0.74676  1
 Na  Na6  1  0.74676  0.74676  0.74676  1
 Na  Na7  1  0.74676  0.25324  0.25324  1
 Na  Na8  1  0.25324  0.74676  0.25324  1
 O  O1  1  0.50000  0.50000  0.00000  1
 O  O2  1  0.00000  0.50000  0.50000  1
 O  O3  1  0.50000  0.00000  0.50000  1
