CIF file written using JARVIS-Tools package.
data_Li2WS4
_symmetry_space_group_name_H-M  'I-42m'
_cell_length_a       6.02644
_cell_length_b       6.02644
_cell_length_c       6.33799
_cell_angle_alpha    61.6132
_cell_angle_beta     61.6132
_cell_angle_gamma    90

_symmetry_Int_Tables_number  121
_chemical_formula_structural  Li2WS4
_chemical_formula_sum  Li2WS4
_cell_volume  170.38950056321553
_cell_formula_units_Z  1
loop_
  _symmetry_equiv_pos_site_id
 _symmetry_equiv_pos_as_xyz
 1  'x, y, z'
loop_
 _atom_site_type_symbol
 _atom_site_label
 _atom_site_symmetry_multiplicity
 _atom_site_fract_x
 _atom_site_fract_y
 _atom_site_fract_z
 _atom_site_fract_occupancy
 Li  Li1  1  0.50000  0.00000  0.00000  1
 Li  Li2  1  0.00000  0.50000  0.00000  1
 S  S1  1  0.65291  0.08365  0.26343  1
 S  S2  1  0.34709  0.34709  0.73657  1
 S  S3  1  0.08365  0.65291  0.26343  1
 S  S4  1  0.91635  0.91635  0.73657  1
 W  W1  1  0.00000  0.00000  0.00000  1
