CIF file written using JARVIS-Tools package.
data_CaIrO3
_symmetry_space_group_name_H-M  'Cmcm'
_cell_length_a       3.20703
_cell_length_b       5.16018
_cell_length_c       7.33472
_cell_angle_alpha    90
_cell_angle_beta     90
_cell_angle_gamma    108.104

_symmetry_Int_Tables_number  63
_chemical_formula_structural  CaIrO3
_chemical_formula_sum  Ca2Ir2O6
_cell_volume  115.37202148262146
_cell_formula_units_Z  2
loop_
  _symmetry_equiv_pos_site_id
 _symmetry_equiv_pos_as_xyz
 1  'x, y, z'
loop_
 _atom_site_type_symbol
 _atom_site_label
 _atom_site_symmetry_multiplicity
 _atom_site_fract_x
 _atom_site_fract_y
 _atom_site_fract_z
 _atom_site_fract_occupancy
 Ca  Ca1  1  0.24843  0.49685  0.00954  1
 Ca  Ca2  1  0.75157  0.50315  0.50954  1
 Ir  Ir1  1  -0.00000  -0.00000  0.75954  1
 Ir  Ir2  1  0.00000  0.00000  0.25954  1
 O  O1  1  0.37311  0.74621  0.70940  1
 O  O2  1  0.62689  0.25379  0.20940  1
 O  O3  1  0.37310  0.74621  0.30968  1
 O  O4  1  0.62690  0.25379  0.80968  1
 O  O5  1  0.92203  0.84405  0.00954  1
 O  O6  1  0.07797  0.15595  0.50954  1
