CIF file written using JARVIS-Tools package.
data_Sm2PbS4
_symmetry_space_group_name_H-M  'I-42d'
_cell_length_a       7.45481
_cell_length_b       7.45481
_cell_length_c       7.45481
_cell_angle_alpha    109.386
_cell_angle_beta     109.386
_cell_angle_gamma    109.642

_symmetry_Int_Tables_number  122
_chemical_formula_structural  Sm2PbS4
_chemical_formula_sum  Sm4Pb2S8
_cell_volume  318.92222817220585
_cell_formula_units_Z  2
loop_
  _symmetry_equiv_pos_site_id
 _symmetry_equiv_pos_as_xyz
 1  'x, y, z'
loop_
 _atom_site_type_symbol
 _atom_site_label
 _atom_site_symmetry_multiplicity
 _atom_site_fract_x
 _atom_site_fract_y
 _atom_site_fract_z
 _atom_site_fract_occupancy
 Pb  Pb1  1  0.62500  0.37500  0.25000  1
 Pb  Pb2  1  0.87500  0.12500  0.75000  1
 S  S1  1  0.01136  0.85853  0.49731  1
 S  S2  1  0.14147  0.13878  0.15284  1
 S  S3  1  0.35853  0.51136  0.99731  1
 S  S4  1  0.63878  0.64147  0.65284  1
 S  S5  1  0.48864  0.98594  0.84716  1
 S  S6  1  0.48594  0.98864  0.34716  1
 S  S7  1  0.86122  0.51406  0.00269  1
 S  S8  1  0.01406  0.36122  0.50269  1
 Sm  Sm1  1  0.11708  0.75000  0.86708  1
 Sm  Sm2  1  0.25000  0.61708  0.36708  1
 Sm  Sm3  1  0.38292  0.25000  0.63292  1
 Sm  Sm4  1  0.75000  0.88292  0.13292  1
