CIF file written using JARVIS-Tools package.
data_MgV2O4
_symmetry_space_group_name_H-M  'Fd-3m'
_cell_length_a       5.96804
_cell_length_b       5.96724
_cell_length_c       5.96736
_cell_angle_alpha    89.9949
_cell_angle_beta     119.997
_cell_angle_gamma    119.998

_symmetry_Int_Tables_number  227
_chemical_formula_structural  MgV2O4
_chemical_formula_sum  Mg2V4O8
_cell_volume  150.28881132180672
_cell_formula_units_Z  2
loop_
  _symmetry_equiv_pos_site_id
 _symmetry_equiv_pos_as_xyz
 1  'x, y, z'
loop_
 _atom_site_type_symbol
 _atom_site_label
 _atom_site_symmetry_multiplicity
 _atom_site_fract_x
 _atom_site_fract_y
 _atom_site_fract_z
 _atom_site_fract_occupancy
 Mg  Mg1  1  0.75000  0.87500  0.12500  1
 Mg  Mg2  1  0.25000  0.12500  0.87500  1
 O  O1  1  0.51887  0.25944  0.74066  1
 O  O2  1  0.01887  0.27821  0.25944  1
 O  O3  1  0.01888  0.74067  0.25943  1
 O  O4  1  0.48112  0.74055  0.72179  1
 O  O5  1  0.98112  0.25933  0.74057  1
 O  O6  1  0.51888  0.25945  0.27821  1
 O  O7  1  0.48113  0.74056  0.25934  1
 O  O8  1  0.98113  0.72179  0.74056  1
 V  V1  1  0.50000  -0.00000  0.50000  1
 V  V2  1  -0.00000  0.50000  0.50000  1
 V  V3  1  0.00000  0.50000  0.00000  1
 V  V4  1  0.50000  0.50000  0.50000  1
