CIF file written using JARVIS-Tools package.
data_AlSb
_symmetry_space_group_name_H-M  'Pa-3'
_cell_length_a       7.62041
_cell_length_b       7.62041
_cell_length_c       7.62041
_cell_angle_alpha    90
_cell_angle_beta     90
_cell_angle_gamma    90

_symmetry_Int_Tables_number  205
_chemical_formula_structural  AlSb
_chemical_formula_sum  Al8Sb8
_cell_volume  442.5227408028564
_cell_formula_units_Z  8
loop_
  _symmetry_equiv_pos_site_id
 _symmetry_equiv_pos_as_xyz
 1  'x, y, z'
loop_
 _atom_site_type_symbol
 _atom_site_label
 _atom_site_symmetry_multiplicity
 _atom_site_fract_x
 _atom_site_fract_y
 _atom_site_fract_z
 _atom_site_fract_occupancy
 Al  Al1  1  0.34408  0.34408  0.34408  1
 Al  Al2  1  0.15592  0.65592  0.84408  1
 Al  Al3  1  0.84408  0.15592  0.65592  1
 Al  Al4  1  0.65592  0.84408  0.15592  1
 Al  Al5  1  0.65592  0.65592  0.65592  1
 Al  Al6  1  0.84408  0.34408  0.15592  1
 Al  Al7  1  0.15592  0.84408  0.34408  1
 Al  Al8  1  0.34408  0.15592  0.84408  1
 Sb  Sb1  1  0.14209  0.14209  0.14209  1
 Sb  Sb2  1  0.35791  0.85791  0.64209  1
 Sb  Sb3  1  0.64209  0.35791  0.85791  1
 Sb  Sb4  1  0.85791  0.64209  0.35791  1
 Sb  Sb5  1  0.85791  0.85791  0.85791  1
 Sb  Sb6  1  0.64209  0.14209  0.35791  1
 Sb  Sb7  1  0.35791  0.64209  0.14209  1
 Sb  Sb8  1  0.14209  0.35791  0.64209  1
