CIF file written using JARVIS-Tools package.
data_TeMoS
_symmetry_space_group_name_H-M  'P6_3mc'
_cell_length_a       3.37845
_cell_length_b       13.2154
_cell_length_c       3.3785
_cell_angle_alpha    90
_cell_angle_beta     120
_cell_angle_gamma    90

_symmetry_Int_Tables_number  186
_chemical_formula_structural  TeMoS
_chemical_formula_sum  Te2Mo2S2
_cell_volume  130.63282162778285
_cell_formula_units_Z  2
loop_
  _symmetry_equiv_pos_site_id
 _symmetry_equiv_pos_as_xyz
 1  'x, y, z'
loop_
 _atom_site_type_symbol
 _atom_site_label
 _atom_site_symmetry_multiplicity
 _atom_site_fract_x
 _atom_site_fract_y
 _atom_site_fract_z
 _atom_site_fract_occupancy
 Mo  Mo1  1  0.66666  0.73885  0.33334  1
 Mo  Mo2  1  0.33334  0.23880  0.66666  1
 S  S1  1  0.33333  0.62745  0.66669  1
 S  S2  1  0.66667  0.12741  0.33331  1
 Te  Te1  1  0.66667  0.38372  0.33333  1
 Te  Te2  1  0.33333  0.88377  0.66668  1
