CIF file written using JARVIS-Tools package.
data_TiMn3O8
_symmetry_space_group_name_H-M  'P6_3mc'
_cell_length_a       5.70726
_cell_length_b       5.70726
_cell_length_c       8.96788
_cell_angle_alpha    90
_cell_angle_beta     90
_cell_angle_gamma    120

_symmetry_Int_Tables_number  186
_chemical_formula_structural  TiMn3O8
_chemical_formula_sum  Ti2Mn6O6
_cell_volume  252.97365930232942
_cell_formula_units_Z  2
loop_
  _symmetry_equiv_pos_site_id
 _symmetry_equiv_pos_as_xyz
 1  'x, y, z'
loop_
 _atom_site_type_symbol
 _atom_site_label
 _atom_site_symmetry_multiplicity
 _atom_site_fract_x
 _atom_site_fract_y
 _atom_site_fract_z
 _atom_site_fract_occupancy
 Mn  Mn1  1  0.33589  0.16795  0.78668  1
 Mn  Mn2  1  0.83205  0.66411  0.78668  1
 Mn  Mn3  1  0.83205  0.16795  0.78668  1
 Mn  Mn4  1  0.16795  0.83205  0.28668  1
 Mn  Mn5  1  0.16795  0.33589  0.28668  1
 Mn  Mn6  1  0.66411  0.83205  0.28668  1
 O  O1  1  0.03780  0.51890  0.16644  1
 O  O2  1  0.33052  0.16526  0.39944  1
 O  O3  1  0.51890  0.48110  0.66644  1
 O  O4  1  0.66667  0.33333  0.89723  1
 O  O5  1  0.48110  0.51890  0.16644  1
 O  O6  1  0.00000  0.00000  0.18251  1
 O  O7  1  0.83474  0.66948  0.39944  1
 O  O8  1  0.00000  0.00000  0.68251  1
 O  O9  1  0.66948  0.83474  0.89944  1
 O  O10  1  0.16526  0.83474  0.89944  1
 O  O11  1  0.83474  0.16526  0.39944  1
 O  O12  1  0.51890  0.03780  0.66644  1
 O  O13  1  0.48110  0.96220  0.16644  1
 O  O14  1  0.33333  0.66667  0.39723  1
 O  O15  1  0.16526  0.33052  0.89944  1
 O  O16  1  0.96220  0.48110  0.66644  1
 Ti  Ti1  1  0.33333  0.66667  0.00472  1
 Ti  Ti2  1  0.66667  0.33333  0.50472  1
