CIF file written using JARVIS-Tools package.
data_Na3AlF6
_symmetry_space_group_name_H-M  'P2_1/c'
_cell_length_a       5.40604
_cell_length_b       5.63503
_cell_length_c       9.44714
_cell_angle_alpha    90
_cell_angle_beta     124.534
_cell_angle_gamma    90

_symmetry_Int_Tables_number  14
_chemical_formula_structural  Na3AlF6
_chemical_formula_sum  Na6Al2F2
_cell_volume  237.07802780885265
_cell_formula_units_Z  2
loop_
  _symmetry_equiv_pos_site_id
 _symmetry_equiv_pos_as_xyz
 1  'x, y, z'
loop_
 _atom_site_type_symbol
 _atom_site_label
 _atom_site_symmetry_multiplicity
 _atom_site_fract_x
 _atom_site_fract_y
 _atom_site_fract_z
 _atom_site_fract_occupancy
 Al  Al1  1  0.00000  0.50000  0.50000  1
 Al  Al2  1  0.00000  0.00000  0.00000  1
 F  F1  1  0.10993  0.04827  0.22054  1
 F  F2  1  0.76957  0.22933  0.43326  1
 F  F3  1  0.89007  0.95173  0.77946  1
 F  F4  1  0.23043  0.77067  0.56674  1
 F  F5  1  0.76957  0.27067  0.93326  1
 F  F6  1  0.23043  0.72933  0.06674  1
 F  F7  1  0.67502  0.82565  0.95075  1
 F  F8  1  0.67502  0.67435  0.45075  1
 F  F9  1  0.10993  0.45173  0.72054  1
 F  F10  1  0.32498  0.32565  0.54925  1
 F  F11  1  0.89007  0.54827  0.27946  1
 F  F12  1  0.32498  0.17435  0.04925  1
 Na  Na1  1  0.50000  0.00000  0.50000  1
 Na  Na2  1  0.50000  0.50000  0.00000  1
 Na  Na3  1  0.72991  0.94256  0.24685  1
 Na  Na4  1  0.27009  0.44256  0.25315  1
 Na  Na5  1  0.27009  0.05744  0.75315  1
 Na  Na6  1  0.72991  0.55744  0.74685  1
