CIF file written using JARVIS-Tools package.
data_NaHg2IO2
_symmetry_space_group_name_H-M  'P6_222'
_cell_length_a       6.74108
_cell_length_b       6.74108
_cell_length_c       10.0853
_cell_angle_alpha    90
_cell_angle_beta     90
_cell_angle_gamma    120

_symmetry_Int_Tables_number  180
_chemical_formula_structural  NaHg2IO2
_chemical_formula_sum  Na3Hg6I3O6
_cell_volume  396.89710037148683
_cell_formula_units_Z  3
loop_
  _symmetry_equiv_pos_site_id
 _symmetry_equiv_pos_as_xyz
 1  'x, y, z'
loop_
 _atom_site_type_symbol
 _atom_site_label
 _atom_site_symmetry_multiplicity
 _atom_site_fract_x
 _atom_site_fract_y
 _atom_site_fract_z
 _atom_site_fract_occupancy
 Hg  Hg1  1  0.50000  0.50000  0.16544  1
 Hg  Hg2  1  0.50000  -0.00000  0.16789  1
 Hg  Hg3  1  -0.00000  0.50000  0.83456  1
 Hg  Hg4  1  0.50000  0.50000  0.50122  1
 Hg  Hg5  1  -0.00000  0.50000  0.49878  1
 Hg  Hg6  1  0.50000  -0.00000  0.83211  1
 I  I1  1  -0.00000  0.50000  0.16667  1
 I  I2  1  0.50000  -0.00000  0.50000  1
 I  I3  1  0.50000  0.50000  0.83333  1
 Na  Na1  1  0.00000  0.00000  0.66667  1
 Na  Na2  1  0.00000  0.00000  0.33333  1
 Na  Na3  1  0.00000  0.00000  0.00000  1
 O  O1  1  0.14704  0.85296  0.83333  1
 O  O2  1  0.85296  0.14704  0.83333  1
 O  O3  1  0.14704  0.29409  0.50000  1
 O  O4  1  0.70591  0.85296  0.16667  1
 O  O5  1  0.29409  0.14704  0.16667  1
 O  O6  1  0.85296  0.70591  0.50000  1
