CIF file written using JARVIS-Tools package.
data_CF4
_symmetry_space_group_name_H-M  'C2/c'
_cell_length_a       4.1961
_cell_length_b       4.68001
_cell_length_c       7.43292
_cell_angle_alpha    84.0915
_cell_angle_beta     73.6046
_cell_angle_gamma    63.3653

_symmetry_Int_Tables_number  15
_chemical_formula_structural  CF4
_chemical_formula_sum  C2F8
_cell_volume  125.12337741775178
_cell_formula_units_Z  2
loop_
  _symmetry_equiv_pos_site_id
 _symmetry_equiv_pos_as_xyz
 1  'x, y, z'
loop_
 _atom_site_type_symbol
 _atom_site_label
 _atom_site_symmetry_multiplicity
 _atom_site_fract_x
 _atom_site_fract_y
 _atom_site_fract_z
 _atom_site_fract_occupancy
 C  C1  1  0.94273  0.25000  0.25000  1
 C  C2  1  0.05727  0.75000  0.75000  1
 F  F1  1  0.97799  0.50166  0.29666  1
 F  F2  1  0.27632  -0.00166  0.20334  1
 F  F3  1  0.02201  0.49834  0.70334  1
 F  F4  1  0.72368  0.00166  0.79666  1
 F  F5  1  0.27927  0.82220  0.60356  1
 F  F6  1  0.20504  0.67780  0.89644  1
 F  F7  1  0.72073  0.17780  0.39644  1
 F  F8  1  0.79496  0.32220  0.10356  1
