CIF file written using JARVIS-Tools package.
data_MoSeS
_symmetry_space_group_name_H-M  'P3m1'
_cell_length_a       3.25681
_cell_length_b       3.25678
_cell_length_c       34.2359
_cell_angle_alpha    90.0005
_cell_angle_beta     90
_cell_angle_gamma    120

_symmetry_Int_Tables_number  156
_chemical_formula_structural  MoSeS
_chemical_formula_sum  Mo4Se4S4
_cell_volume  314.47928811722426
_cell_formula_units_Z  4
loop_
  _symmetry_equiv_pos_site_id
 _symmetry_equiv_pos_as_xyz
 1  'x, y, z'
loop_
 _atom_site_type_symbol
 _atom_site_label
 _atom_site_symmetry_multiplicity
 _atom_site_fract_x
 _atom_site_fract_y
 _atom_site_fract_z
 _atom_site_fract_occupancy
 Mo  Mo1  1  0.33332  0.66663  0.09481  1
 Mo  Mo2  1  0.33332  0.66663  0.46935  1
 Mo  Mo3  1  0.66668  0.33336  0.28208  1
 Mo  Mo4  1  0.66669  0.33337  0.65667  1
 S  S1  1  0.66665  0.33330  0.04969  1
 S  S2  1  0.66664  0.33329  0.42418  1
 S  S3  1  0.66665  0.33330  0.13999  1
 S  S4  1  0.66666  0.33331  0.51453  1
 Se  Se1  1  0.33335  0.66670  0.33168  1
 Se  Se2  1  0.33335  0.66670  0.70623  1
 Se  Se3  1  0.33334  0.66669  0.23247  1
 Se  Se4  1  0.33335  0.66671  0.60705  1
