CIF file written using JARVIS-Tools package.
data_TbFe3
_symmetry_space_group_name_H-M  'R-3m'
_cell_length_a       8.57511
_cell_length_b       8.57511
_cell_length_c       8.5751
_cell_angle_alpha    34.2926
_cell_angle_beta     34.2926
_cell_angle_gamma    34.2926

_symmetry_Int_Tables_number  166
_chemical_formula_structural  TbFe3
_chemical_formula_sum  Tb3Fe9
_cell_volume  178.50711417335862
_cell_formula_units_Z  3
loop_
  _symmetry_equiv_pos_site_id
 _symmetry_equiv_pos_as_xyz
 1  'x, y, z'
loop_
 _atom_site_type_symbol
 _atom_site_label
 _atom_site_symmetry_multiplicity
 _atom_site_fract_x
 _atom_site_fract_y
 _atom_site_fract_z
 _atom_site_fract_occupancy
 Fe  Fe1  1  0.50000  0.50000  0.50000  1
 Fe  Fe2  1  0.33270  0.33270  0.33270  1
 Fe  Fe3  1  0.66730  0.66730  0.66730  1
 Fe  Fe4  1  0.58096  0.08148  0.58096  1
 Fe  Fe5  1  0.58096  0.58096  0.08148  1
 Fe  Fe6  1  0.08148  0.58096  0.58096  1
 Fe  Fe7  1  0.91852  0.41904  0.41904  1
 Fe  Fe8  1  0.41904  0.91852  0.41904  1
 Fe  Fe9  1  0.41904  0.41904  0.91852  1
 Tb  Tb1  1  0.00000  0.00000  0.00000  1
 Tb  Tb2  1  0.14166  0.14166  0.14166  1
 Tb  Tb3  1  0.85834  0.85834  0.85834  1
