CIF file written using JARVIS-Tools package.
data_Sb2Au
_symmetry_space_group_name_H-M  'Pa-3'
_cell_length_a       6.79086
_cell_length_b       6.79086
_cell_length_c       6.79086
_cell_angle_alpha    90
_cell_angle_beta     90
_cell_angle_gamma    90

_symmetry_Int_Tables_number  205
_chemical_formula_structural  Sb2Au
_chemical_formula_sum  Sb8Au4
_cell_volume  313.1662611459442
_cell_formula_units_Z  4
loop_
  _symmetry_equiv_pos_site_id
 _symmetry_equiv_pos_as_xyz
 1  'x, y, z'
loop_
 _atom_site_type_symbol
 _atom_site_label
 _atom_site_symmetry_multiplicity
 _atom_site_fract_x
 _atom_site_fract_y
 _atom_site_fract_z
 _atom_site_fract_occupancy
 Au  Au1  1  0.00000  0.50000  0.50000  1
 Au  Au2  1  0.50000  0.50000  0.00000  1
 Au  Au3  1  0.50000  0.00000  0.50000  1
 Au  Au4  1  0.00000  0.00000  0.00000  1
 Sb  Sb1  1  0.37594  0.12406  0.87594  1
 Sb  Sb2  1  0.12406  0.87594  0.37594  1
 Sb  Sb3  1  0.87594  0.37594  0.12406  1
 Sb  Sb4  1  0.62406  0.62406  0.62406  1
 Sb  Sb5  1  0.37594  0.37594  0.37594  1
 Sb  Sb6  1  0.12406  0.62406  0.87594  1
 Sb  Sb7  1  0.87594  0.12406  0.62406  1
 Sb  Sb8  1  0.62406  0.87594  0.12406  1
