CIF file written using JARVIS-Tools package.
data_MnZnO2
_symmetry_space_group_name_H-M  'P-1'
_cell_length_a       3.10229
_cell_length_b       8.05193
_cell_length_c       8.40484
_cell_angle_alpha    90.2436
_cell_angle_beta     95.6833
_cell_angle_gamma    92.689

_symmetry_Int_Tables_number  2
_chemical_formula_structural  MnZnO2
_chemical_formula_sum  Mn4Zn4O8
_cell_volume  208.67790339204802
_cell_formula_units_Z  4
loop_
  _symmetry_equiv_pos_site_id
 _symmetry_equiv_pos_as_xyz
 1  'x, y, z'
loop_
 _atom_site_type_symbol
 _atom_site_label
 _atom_site_symmetry_multiplicity
 _atom_site_fract_x
 _atom_site_fract_y
 _atom_site_fract_z
 _atom_site_fract_occupancy
 Mn  Mn1  1  0.95176  0.24189  0.41451  1
 Mn  Mn2  1  0.70140  0.40095  0.77078  1
 Mn  Mn3  1  0.27440  0.57896  0.20101  1
 Mn  Mn4  1  0.02393  0.73805  0.55729  1
 O  O1  1  0.47792  0.72608  0.40409  1
 O  O2  1  0.79054  0.38255  0.21135  1
 O  O3  1  0.18520  0.59737  0.76043  1
 O  O4  1  0.49779  0.25385  0.56771  1
 O  O5  1  0.17126  0.06263  0.25547  1
 O  O6  1  0.21960  0.25735  0.87373  1
 O  O7  1  0.80458  0.91729  0.71635  1
 O  O8  1  0.75623  0.72257  0.09807  1
 Zn  Zn1  1  0.32879  0.07194  0.72649  1
 Zn  Zn2  1  0.64707  0.90798  0.24531  1
 Zn  Zn3  1  0.72924  0.73721  0.87248  1
 Zn  Zn4  1  0.24640  0.24268  0.09931  1
