CIF file written using JARVIS-Tools package.
data_ThMnSe3
_symmetry_space_group_name_H-M  'Cmcm'
_cell_length_a       4.04723
_cell_length_b       6.65566
_cell_length_c       9.35445
_cell_angle_alpha    90
_cell_angle_beta     90
_cell_angle_gamma    107.701

_symmetry_Int_Tables_number  63
_chemical_formula_structural  ThMnSe3
_chemical_formula_sum  Th2Mn2Se6
_cell_volume  240.05166506626568
_cell_formula_units_Z  2
loop_
  _symmetry_equiv_pos_site_id
 _symmetry_equiv_pos_as_xyz
 1  'x, y, z'
loop_
 _atom_site_type_symbol
 _atom_site_label
 _atom_site_symmetry_multiplicity
 _atom_site_fract_x
 _atom_site_fract_y
 _atom_site_fract_z
 _atom_site_fract_occupancy
 Mn  Mn1  1  0.00000  0.00000  0.50000  1
 Mn  Mn2  1  0.00000  0.00000  0.00000  1
 Se  Se1  1  0.08051  0.16102  0.75000  1
 Se  Se2  1  0.91949  0.83898  0.25000  1
 Se  Se3  1  0.35737  0.71474  0.94229  1
 Se  Se4  1  0.64263  0.28526  0.05771  1
 Se  Se5  1  0.64263  0.28526  0.44229  1
 Se  Se6  1  0.35737  0.71474  0.55771  1
 Th  Th1  1  0.24962  0.49923  0.25000  1
 Th  Th2  1  0.75038  0.50077  0.75000  1
