CIF file written using JARVIS-Tools package.
data_Y6FeSb2
_symmetry_space_group_name_H-M  'P-62m'
_cell_length_a       8.19562
_cell_length_b       8.19562
_cell_length_c       4.11835
_cell_angle_alpha    90
_cell_angle_beta     90
_cell_angle_gamma    120

_symmetry_Int_Tables_number  189
_chemical_formula_structural  Y6FeSb2
_chemical_formula_sum  Y6FeSb2
_cell_volume  239.56216088316128
_cell_formula_units_Z  1
loop_
  _symmetry_equiv_pos_site_id
 _symmetry_equiv_pos_as_xyz
 1  'x, y, z'
loop_
 _atom_site_type_symbol
 _atom_site_label
 _atom_site_symmetry_multiplicity
 _atom_site_fract_x
 _atom_site_fract_y
 _atom_site_fract_z
 _atom_site_fract_occupancy
 Fe  Fe1  1  0.00000  0.00000  0.50000  1
 Sb  Sb1  1  0.33333  0.66667  0.00000  1
 Sb  Sb2  1  0.66667  0.33333  0.00000  1
 Y  Y1  1  0.00000  0.23403  0.00000  1
 Y  Y2  1  0.40011  0.40011  0.50000  1
 Y  Y3  1  0.59989  -0.00000  0.50000  1
 Y  Y4  1  0.23403  0.00000  0.00000  1
 Y  Y5  1  0.76597  0.76597  0.00000  1
 Y  Y6  1  -0.00000  0.59989  0.50000  1
