CIF file written using JARVIS-Tools package.
data_Te2Mo3WSe6
_symmetry_space_group_name_H-M  'P1'
_cell_length_a       3.38476
_cell_length_b       3.38488
_cell_length_c       33.5539
_cell_angle_alpha    89.5125
_cell_angle_beta     90.206
_cell_angle_gamma    119.997

_symmetry_Int_Tables_number  1
_chemical_formula_structural  Te2Mo3WSe6
_chemical_formula_sum  Te2Mo3WSe6
_cell_volume  332.9233774752152
_cell_formula_units_Z  1
loop_
  _symmetry_equiv_pos_site_id
 _symmetry_equiv_pos_as_xyz
 1  'x, y, z'
loop_
 _atom_site_type_symbol
 _atom_site_label
 _atom_site_symmetry_multiplicity
 _atom_site_fract_x
 _atom_site_fract_y
 _atom_site_fract_z
 _atom_site_fract_occupancy
 Mo  Mo1  1  0.33378  0.66410  0.08034  1
 Mo  Mo2  1  0.66601  0.33523  0.27551  1
 Mo  Mo3  1  0.66774  0.33353  0.67699  1
 Se  Se1  1  0.33224  0.66412  0.32480  1
 Se  Se2  1  0.66755  0.33532  0.03108  1
 Se  Se3  1  0.66630  0.33839  0.42058  1
 Se  Se4  1  0.66666  0.32619  0.12965  1
 Se  Se5  1  0.66531  0.32919  0.51966  1
 Se  Se6  1  0.33312  0.67302  0.22620  1
 Te  Te1  1  0.33390  0.66158  0.73306  1
 Te  Te2  1  0.33492  0.67220  0.62081  1
 W  W1  1  0.33247  0.66712  0.47009  1
