CIF file written using JARVIS-Tools package.
data_Ca2CrSbO6
_symmetry_space_group_name_H-M  'P2_1/m'
_cell_length_a       5.41019
_cell_length_b       7.80291
_cell_length_c       5.56895
_cell_angle_alpha    90
_cell_angle_beta     90.0175
_cell_angle_gamma    90

_symmetry_Int_Tables_number  11
_chemical_formula_structural  Ca2CrSbO6
_chemical_formula_sum  Ca4Cr2Sb2O2
_cell_volume  235.09432213694384
_cell_formula_units_Z  2
loop_
  _symmetry_equiv_pos_site_id
 _symmetry_equiv_pos_as_xyz
 1  'x, y, z'
loop_
 _atom_site_type_symbol
 _atom_site_label
 _atom_site_symmetry_multiplicity
 _atom_site_fract_x
 _atom_site_fract_y
 _atom_site_fract_z
 _atom_site_fract_occupancy
 Ca  Ca1  1  0.48407  0.25000  0.56706  1
 Ca  Ca2  1  0.51593  0.75000  0.43294  1
 Ca  Ca3  1  0.00734  0.25000  0.04261  1
 Ca  Ca4  1  0.99266  0.75000  0.95739  1
 Cr  Cr1  1  0.50000  0.50000  -0.00000  1
 Cr  Cr2  1  0.50000  0.00000  -0.00000  1
 O  O1  1  0.70221  0.54873  0.70021  1
 O  O2  1  0.90135  0.25000  0.46971  1
 O  O3  1  0.29779  0.04873  0.29979  1
 O  O4  1  0.19826  0.45075  0.79447  1
 O  O5  1  0.80174  0.95075  0.20553  1
 O  O6  1  0.19826  0.04925  0.79447  1
 O  O7  1  0.58835  0.25000  0.97285  1
 O  O8  1  0.70221  0.95127  0.70021  1
 O  O9  1  0.80174  0.54925  0.20553  1
 O  O10  1  0.29779  0.45127  0.29979  1
 O  O11  1  0.09865  0.75000  0.53029  1
 O  O12  1  0.41165  0.75000  0.02715  1
 Sb  Sb1  1  -0.00000  0.00000  0.50000  1
 Sb  Sb2  1  -0.00000  0.50000  0.50000  1
