CIF file written using JARVIS-Tools package.
data_Li2CO3
_symmetry_space_group_name_H-M  'C2/c'
_cell_length_a       4.88061
_cell_length_b       4.88061
_cell_length_c       6.10694
_cell_angle_alpha    68.7744
_cell_angle_beta     68.7744
_cell_angle_gamma    61.522

_symmetry_Int_Tables_number  15
_chemical_formula_structural  Li2CO3
_chemical_formula_sum  Li4C2O6
_cell_volume  115.96508647879642
_cell_formula_units_Z  2
loop_
  _symmetry_equiv_pos_site_id
 _symmetry_equiv_pos_as_xyz
 1  'x, y, z'
loop_
 _atom_site_type_symbol
 _atom_site_label
 _atom_site_symmetry_multiplicity
 _atom_site_fract_x
 _atom_site_fract_y
 _atom_site_fract_z
 _atom_site_fract_occupancy
 C  C1  1  0.06876  0.93124  0.75000  1
 C  C2  1  0.93124  0.06876  0.25000  1
 Li  Li1  1  0.63986  0.75145  0.16723  1
 Li  Li2  1  0.24855  0.36014  0.33277  1
 Li  Li3  1  0.36014  0.24855  0.83277  1
 Li  Li4  1  0.75145  0.63986  0.66723  1
 O  O1  1  0.32575  0.67425  0.75000  1
 O  O2  1  0.67425  0.32575  0.25000  1
 O  O3  1  0.08455  0.20934  0.68882  1
 O  O4  1  0.79066  0.91545  0.81118  1
 O  O5  1  0.91545  0.79066  0.31118  1
 O  O6  1  0.20934  0.08455  0.18882  1
