CIF file written using JARVIS-Tools package.
data_LiTiNiO4
_symmetry_space_group_name_H-M  'Imma'
_cell_length_a       5.94153
_cell_length_b       5.80273
_cell_length_c       5.80273
_cell_angle_alpha    61.7337
_cell_angle_beta     59.2055
_cell_angle_gamma    59.2055

_symmetry_Int_Tables_number  74
_chemical_formula_structural  LiTiNiO4
_chemical_formula_sum  Li2Ti2Ni2O8
_cell_volume  141.43254005808416
_cell_formula_units_Z  2
loop_
  _symmetry_equiv_pos_site_id
 _symmetry_equiv_pos_as_xyz
 1  'x, y, z'
loop_
 _atom_site_type_symbol
 _atom_site_label
 _atom_site_symmetry_multiplicity
 _atom_site_fract_x
 _atom_site_fract_y
 _atom_site_fract_z
 _atom_site_fract_occupancy
 Li  Li1  1  0.11898  0.13102  0.13102  1
 Li  Li2  1  0.88102  0.86898  0.86898  1
 Ni  Ni1  1  0.00000  0.50000  0.50000  1
 Ni  Ni2  1  0.50000  0.50000  0.50000  1
 O  O1  1  0.26875  0.25851  0.25851  1
 O  O2  1  0.25710  0.26868  0.71712  1
 O  O3  1  0.25710  0.71712  0.26868  1
 O  O4  1  0.71423  0.25851  0.25851  1
 O  O5  1  0.28577  0.74149  0.74149  1
 O  O6  1  0.74290  0.73132  0.28288  1
 O  O7  1  0.74290  0.28288  0.73132  1
 O  O8  1  0.73125  0.74149  0.74149  1
 Ti  Ti1  1  0.50000  -0.00000  0.50000  1
 Ti  Ti2  1  0.50000  0.50000  0.00000  1
