CIF file written using JARVIS-Tools package.
data_SrLi2Nb2O7
_symmetry_space_group_name_H-M  'I4/mmm'
_cell_length_a       4.01089
_cell_length_b       4.0109
_cell_length_c       9.47764
_cell_angle_alpha    102.218
_cell_angle_beta     102.218
_cell_angle_gamma    89.9966

_symmetry_Int_Tables_number  139
_chemical_formula_structural  SrLi2Nb2O7
_chemical_formula_sum  SrLi2Nb2O7
_cell_volume  145.48120702921983
_cell_formula_units_Z  1
loop_
  _symmetry_equiv_pos_site_id
 _symmetry_equiv_pos_as_xyz
 1  'x, y, z'
loop_
 _atom_site_type_symbol
 _atom_site_label
 _atom_site_symmetry_multiplicity
 _atom_site_fract_x
 _atom_site_fract_y
 _atom_site_fract_z
 _atom_site_fract_occupancy
 Li  Li1  1  0.25002  0.74998  0.50000  1
 Li  Li2  1  0.74998  0.25002  0.50000  1
 Nb  Nb1  1  0.38303  0.38303  0.76613  1
 Nb  Nb2  1  0.61697  0.61697  0.23387  1
 O  O1  1  0.10608  0.60607  0.21215  1
 O  O2  1  0.60607  0.10608  0.21215  1
 O  O3  1  0.72216  0.72215  0.44431  1
 O  O4  1  0.39393  0.89392  0.78785  1
 O  O5  1  0.27784  0.27785  0.55569  1
 O  O6  1  0.50000  0.50000  -0.00000  1
 O  O7  1  0.89392  0.39393  0.78785  1
 Sr  Sr1  1  0.00000  0.00000  0.00000  1
