CIF file written using JARVIS-Tools package.
data_SmMgGa
_symmetry_space_group_name_H-M  'P-62m'
_cell_length_a       7.36548
_cell_length_b       7.36548
_cell_length_c       4.46402
_cell_angle_alpha    90
_cell_angle_beta     90
_cell_angle_gamma    120

_symmetry_Int_Tables_number  189
_chemical_formula_structural  SmMgGa
_chemical_formula_sum  Sm3Mg3Ga3
_cell_volume  209.72931910817
_cell_formula_units_Z  3
loop_
  _symmetry_equiv_pos_site_id
 _symmetry_equiv_pos_as_xyz
 1  'x, y, z'
loop_
 _atom_site_type_symbol
 _atom_site_label
 _atom_site_symmetry_multiplicity
 _atom_site_fract_x
 _atom_site_fract_y
 _atom_site_fract_z
 _atom_site_fract_occupancy
 Ga  Ga1  1  0.33333  0.66667  0.50000  1
 Ga  Ga2  1  0.66667  0.33333  0.50000  1
 Ga  Ga3  1  0.00000  0.00000  0.00000  1
 Mg  Mg1  1  0.00000  0.24399  0.50000  1
 Mg  Mg2  1  0.75601  0.75601  0.50000  1
 Mg  Mg3  1  0.24399  0.00000  0.50000  1
 Sm  Sm1  1  0.00000  0.57791  0.00000  1
 Sm  Sm2  1  0.42209  0.42209  0.00000  1
 Sm  Sm3  1  0.57791  0.00000  0.00000  1
