CIF file written using JARVIS-Tools package.
data_TbCoSi
_symmetry_space_group_name_H-M  'Pnma'
_cell_length_a       4.23044
_cell_length_b       6.79081
_cell_length_c       6.98025
_cell_angle_alpha    90
_cell_angle_beta     90
_cell_angle_gamma    90

_symmetry_Int_Tables_number  62
_chemical_formula_structural  TbCoSi
_chemical_formula_sum  Tb4Co4Si4
_cell_volume  200.52936079133832
_cell_formula_units_Z  4
loop_
  _symmetry_equiv_pos_site_id
 _symmetry_equiv_pos_as_xyz
 1  'x, y, z'
loop_
 _atom_site_type_symbol
 _atom_site_label
 _atom_site_symmetry_multiplicity
 _atom_site_fract_x
 _atom_site_fract_y
 _atom_site_fract_z
 _atom_site_fract_occupancy
 Co  Co1  1  0.25000  0.56905  0.85632  1
 Co  Co2  1  0.75000  0.43095  0.14368  1
 Co  Co3  1  0.25000  0.93095  0.35632  1
 Co  Co4  1  0.75000  0.06905  0.64368  1
 Si  Si1  1  0.75000  0.39194  0.80758  1
 Si  Si2  1  0.25000  0.60806  0.19242  1
 Si  Si3  1  0.75000  0.10806  0.30758  1
 Si  Si4  1  0.25000  0.89194  0.69242  1
 Tb  Tb1  1  0.75000  0.68375  0.47817  1
 Tb  Tb2  1  0.25000  0.31625  0.52183  1
 Tb  Tb3  1  0.75000  0.81625  0.97817  1
 Tb  Tb4  1  0.25000  0.18375  0.02183  1
