CIF file written using JARVIS-Tools package.
data_NaMgBO3
_symmetry_space_group_name_H-M  'C2/c'
_cell_length_a       5.0249
_cell_length_b       5.0922
_cell_length_c       5.52278
_cell_angle_alpha    84.7967
_cell_angle_beta     79.4082
_cell_angle_gamma    60.4362

_symmetry_Int_Tables_number  15
_chemical_formula_structural  NaMgBO3
_chemical_formula_sum  Na2Mg2B2O6
_cell_volume  120.82319349987819
_cell_formula_units_Z  2
loop_
  _symmetry_equiv_pos_site_id
 _symmetry_equiv_pos_as_xyz
 1  'x, y, z'
loop_
 _atom_site_type_symbol
 _atom_site_label
 _atom_site_symmetry_multiplicity
 _atom_site_fract_x
 _atom_site_fract_y
 _atom_site_fract_z
 _atom_site_fract_occupancy
 B  B1  1  0.66807  0.66386  0.25000  1
 B  B2  1  0.33193  0.33614  0.75000  1
 Mg  Mg1  1  0.00000  0.00000  0.00000  1
 Mg  Mg2  1  -0.00000  0.00000  0.50000  1
 Na  Na1  1  0.33431  0.33137  0.25000  1
 Na  Na2  1  0.66569  0.66863  0.75000  1
 O  O1  1  0.18718  0.18141  0.69793  1
 O  O2  1  0.82443  0.35114  0.25000  1
 O  O3  1  0.63141  0.18141  0.80207  1
 O  O4  1  0.36859  0.81859  0.19793  1
 O  O5  1  0.17557  0.64886  0.75000  1
 O  O6  1  0.81282  0.81859  0.30207  1
