CIF file written using JARVIS-Tools package.
data_Tl4V2O7
_symmetry_space_group_name_H-M  'P-3m1'
_cell_length_a       6.00167
_cell_length_b       6.00167
_cell_length_c       7.74043
_cell_angle_alpha    90
_cell_angle_beta     90
_cell_angle_gamma    120

_symmetry_Int_Tables_number  164
_chemical_formula_structural  Tl4V2O7
_chemical_formula_sum  Tl4V2O7
_cell_volume  241.45676498087295
_cell_formula_units_Z  1
loop_
  _symmetry_equiv_pos_site_id
 _symmetry_equiv_pos_as_xyz
 1  'x, y, z'
loop_
 _atom_site_type_symbol
 _atom_site_label
 _atom_site_symmetry_multiplicity
 _atom_site_fract_x
 _atom_site_fract_y
 _atom_site_fract_z
 _atom_site_fract_occupancy
 O  O1  1  0.68695  0.84347  0.80408  1
 O  O2  1  0.15653  0.31305  0.80408  1
 O  O3  1  0.15653  0.84347  0.80408  1
 O  O4  1  0.84347  0.15653  0.19592  1
 O  O5  1  0.84347  0.68695  0.19592  1
 O  O6  1  0.31305  0.15653  0.19592  1
 O  O7  1  0.00000  0.00000  0.50000  1
 Tl  Tl1  1  0.66667  0.33333  0.91901  1
 Tl  Tl2  1  0.33333  0.66667  0.08099  1
 Tl  Tl3  1  0.33333  0.66667  0.58550  1
 Tl  Tl4  1  0.66667  0.33333  0.41450  1
 V  V1  1  0.00000  0.00000  0.26533  1
 V  V2  1  0.00000  0.00000  0.73467  1
