CIF file written using JARVIS-Tools package.
data_CeAlO3
_symmetry_space_group_name_H-M  'I4/mcm'
_cell_length_a       5.32739
_cell_length_b       5.32739
_cell_length_c       5.36801
_cell_angle_alpha    119.75
_cell_angle_beta     119.75
_cell_angle_gamma    90

_symmetry_Int_Tables_number  140
_chemical_formula_structural  CeAlO3
_chemical_formula_sum  Ce2Al2O6
_cell_volume  108.53677381736314
_cell_formula_units_Z  2
loop_
  _symmetry_equiv_pos_site_id
 _symmetry_equiv_pos_as_xyz
 1  'x, y, z'
loop_
 _atom_site_type_symbol
 _atom_site_label
 _atom_site_symmetry_multiplicity
 _atom_site_fract_x
 _atom_site_fract_y
 _atom_site_fract_z
 _atom_site_fract_occupancy
 Al  Al1  1  0.50000  0.50000  0.00000  1
 Al  Al2  1  0.00000  0.00000  0.00000  1
 Ce  Ce1  1  0.75000  0.25000  0.50000  1
 Ce  Ce2  1  0.25000  0.75000  0.50000  1
 O  O1  1  0.78712  0.28712  -0.00000  1
 O  O2  1  0.71288  0.78712  -0.00000  1
 O  O3  1  0.28712  0.21288  0.00000  1
 O  O4  1  0.21288  0.71288  0.00000  1
 O  O5  1  0.25000  0.25000  0.50000  1
 O  O6  1  0.75000  0.75000  0.50000  1
