CIF file written using JARVIS-Tools package.
data_Ti3N
_symmetry_space_group_name_H-M  'I4/mmm'
_cell_length_a       4.94784
_cell_length_b       4.94784
_cell_length_c       4.94784
_cell_angle_alpha    139.001
_cell_angle_beta     139.001
_cell_angle_gamma    59.3733

_symmetry_Int_Tables_number  139
_chemical_formula_structural  Ti3N
_chemical_formula_sum  Ti3N
_cell_volume  51.621510094069
_cell_formula_units_Z  1
loop_
  _symmetry_equiv_pos_site_id
 _symmetry_equiv_pos_as_xyz
 1  'x, y, z'
loop_
 _atom_site_type_symbol
 _atom_site_label
 _atom_site_symmetry_multiplicity
 _atom_site_fract_x
 _atom_site_fract_y
 _atom_site_fract_z
 _atom_site_fract_occupancy
 N  N1  1  0.00000  0.00000  0.00000  1
 Ti  Ti1  1  0.75000  0.25000  0.50000  1
 Ti  Ti2  1  0.25000  0.75000  0.50000  1
 Ti  Ti3  1  0.50000  0.50000  0.00000  1
