CIF file written using JARVIS-Tools package.
data_SrNd5S8
_symmetry_space_group_name_H-M  'I-4'
_cell_length_a       7.47123
_cell_length_b       7.47123
_cell_length_c       7.47123
_cell_angle_alpha    109.463
_cell_angle_beta     109.488
_cell_angle_gamma    109.463

_symmetry_Int_Tables_number  82
_chemical_formula_structural  SrNd5S8
_chemical_formula_sum  SrNd5S8
_cell_volume  321.03673474910494
_cell_formula_units_Z  1
loop_
  _symmetry_equiv_pos_site_id
 _symmetry_equiv_pos_as_xyz
 1  'x, y, z'
loop_
 _atom_site_type_symbol
 _atom_site_label
 _atom_site_symmetry_multiplicity
 _atom_site_fract_x
 _atom_site_fract_y
 _atom_site_fract_z
 _atom_site_fract_occupancy
 Nd  Nd1  1  0.24691  0.62423  0.37254  1
 Nd  Nd2  1  0.37500  0.25000  0.62500  1
 Nd  Nd3  1  0.74831  0.87577  0.12267  1
 Nd  Nd4  1  0.62746  0.37437  0.25169  1
 Nd  Nd5  1  0.87733  0.12563  0.75309  1
 S  S1  1  0.99659  0.85321  0.49372  1
 S  S2  1  0.15047  0.15425  0.15352  1
 S  S3  1  0.50628  0.00287  0.35949  1
 S  S4  1  0.35662  0.49713  0.00341  1
 S  S5  1  0.64051  0.64679  0.64338  1
 S  S6  1  0.50378  0.00305  0.84953  1
 S  S7  1  0.84648  0.49695  0.00073  1
 S  S8  1  0.99927  0.34575  0.49622  1
 Sr  Sr1  1  0.12500  0.75000  0.87500  1
