CIF file written using JARVIS-Tools package.
data_TeMo2SeS2
_symmetry_space_group_name_H-M  'P3m1'
_cell_length_a       3.31266
_cell_length_b       3.31266
_cell_length_c       35.876
_cell_angle_alpha    90.0024
_cell_angle_beta     90
_cell_angle_gamma    120

_symmetry_Int_Tables_number  156
_chemical_formula_structural  TeMo2SeS2
_chemical_formula_sum  Te2Mo4Se2S4
_cell_volume  340.94856604039734
_cell_formula_units_Z  2
loop_
  _symmetry_equiv_pos_site_id
 _symmetry_equiv_pos_as_xyz
 1  'x, y, z'
loop_
 _atom_site_type_symbol
 _atom_site_label
 _atom_site_symmetry_multiplicity
 _atom_site_fract_x
 _atom_site_fract_y
 _atom_site_fract_z
 _atom_site_fract_occupancy
 Mo  Mo1  1  0.33328  0.66656  0.09821  1
 Mo  Mo2  1  0.33335  0.66670  0.47059  1
 Mo  Mo3  1  0.66662  0.33323  0.27550  1
 Mo  Mo4  1  0.66676  0.33351  0.65862  1
 S  S1  1  0.33343  0.66685  0.70117  1
 S  S2  1  0.66661  0.33322  0.05564  1
 S  S3  1  0.66662  0.33324  0.14082  1
 S  S4  1  0.33342  0.66683  0.61602  1
 Se  Se1  1  0.33329  0.66658  0.32228  1
 Se  Se2  1  0.33328  0.66656  0.22870  1
 Te  Te1  1  0.66665  0.33330  0.41714  1
 Te  Te2  1  0.66671  0.33343  0.52406  1
