CIF file written using JARVIS-Tools package.
data_DyAl8Fe4
_symmetry_space_group_name_H-M  'I4/mmm'
_cell_length_a       5.03994
_cell_length_b       6.64155
_cell_length_c       6.64156
_cell_angle_alpha    81.7227
_cell_angle_beta     67.7019
_cell_angle_gamma    67.7019

_symmetry_Int_Tables_number  139
_chemical_formula_structural  DyAl8Fe4
_chemical_formula_sum  DyAl8Fe4
_cell_volume  190.307868955492
_cell_formula_units_Z  1
loop_
  _symmetry_equiv_pos_site_id
 _symmetry_equiv_pos_as_xyz
 1  'x, y, z'
loop_
 _atom_site_type_symbol
 _atom_site_label
 _atom_site_symmetry_multiplicity
 _atom_site_fract_x
 _atom_site_fract_y
 _atom_site_fract_z
 _atom_site_fract_occupancy
 Al  Al1  1  0.66052  0.33948  0.33948  1
 Al  Al2  1  0.00000  0.66052  0.33948  1
 Al  Al3  1  -0.00000  0.33948  0.66052  1
 Al  Al4  1  0.33948  0.66052  0.66052  1
 Al  Al5  1  0.72122  0.77878  0.77878  1
 Al  Al6  1  0.27878  0.22122  0.22122  1
 Al  Al7  1  0.50000  0.77878  0.22122  1
 Al  Al8  1  0.50000  0.22122  0.77878  1
 Dy  Dy1  1  0.00000  0.00000  0.00000  1
 Fe  Fe1  1  0.00000  0.00000  0.50000  1
 Fe  Fe2  1  0.50000  0.50000  0.00000  1
 Fe  Fe3  1  0.00000  0.50000  -0.00000  1
 Fe  Fe4  1  0.50000  0.00000  0.50000  1
