CIF file written using JARVIS-Tools package.
data_YbBr2
_symmetry_space_group_name_H-M  'Pbcn'
_cell_length_a       6.50306
_cell_length_b       7.17985
_cell_length_c       8.03626
_cell_angle_alpha    90
_cell_angle_beta     90
_cell_angle_gamma    90

_symmetry_Int_Tables_number  60
_chemical_formula_structural  YbBr2
_chemical_formula_sum  Yb4Br8
_cell_volume  375.2208232621897
_cell_formula_units_Z  4
loop_
  _symmetry_equiv_pos_site_id
 _symmetry_equiv_pos_as_xyz
 1  'x, y, z'
loop_
 _atom_site_type_symbol
 _atom_site_label
 _atom_site_symmetry_multiplicity
 _atom_site_fract_x
 _atom_site_fract_y
 _atom_site_fract_z
 _atom_site_fract_occupancy
 Br  Br1  1  0.75449  0.92216  0.60984  1
 Br  Br2  1  0.25449  0.07784  0.89016  1
 Br  Br3  1  0.74551  0.92216  0.10984  1
 Br  Br4  1  0.24551  0.57784  0.60984  1
 Br  Br5  1  0.24551  0.07784  0.39016  1
 Br  Br6  1  0.75449  0.42216  0.39016  1
 Br  Br7  1  0.74551  0.42216  0.89016  1
 Br  Br8  1  0.25449  0.57784  0.10984  1
 Yb  Yb1  1  0.00000  0.25000  0.64500  1
 Yb  Yb2  1  0.50000  0.25000  0.14500  1
 Yb  Yb3  1  0.50000  0.75000  0.85500  1
 Yb  Yb4  1  0.00000  0.75000  0.35500  1
