CIF file written using JARVIS-Tools package.
data_Pr2Al3Ge
_symmetry_space_group_name_H-M  'Pmm2'
_cell_length_a       4.31303
_cell_length_b       4.3543
_cell_length_c       7.53225
_cell_angle_alpha    90
_cell_angle_beta     90
_cell_angle_gamma    90

_symmetry_Int_Tables_number  25
_chemical_formula_structural  Pr2Al3Ge
_chemical_formula_sum  Pr2Al3Ge
_cell_volume  141.45740678903442
_cell_formula_units_Z  1
loop_
  _symmetry_equiv_pos_site_id
 _symmetry_equiv_pos_as_xyz
 1  'x, y, z'
loop_
 _atom_site_type_symbol
 _atom_site_label
 _atom_site_symmetry_multiplicity
 _atom_site_fract_x
 _atom_site_fract_y
 _atom_site_fract_z
 _atom_site_fract_occupancy
 Al  Al1  1  0.50000  0.00000  0.83095  1
 Al  Al2  1  0.50000  0.00000  0.16616  1
 Al  Al3  1  0.50000  0.50000  0.66663  1
 Ge  Ge1  1  0.50000  0.50000  0.33551  1
 Pr  Pr1  1  0.00000  0.50000  0.00600  1
 Pr  Pr2  1  0.00000  0.00000  0.49475  1
