CIF file written using JARVIS-Tools package.
data_ZnHgS2
_symmetry_space_group_name_H-M  'R3m'
_cell_length_a       7.06886
_cell_length_b       7.06886
_cell_length_c       7.06886
_cell_angle_alpha    32.9663
_cell_angle_beta     32.9662
_cell_angle_gamma    32.9663

_symmetry_Int_Tables_number  160
_chemical_formula_structural  ZnHgS2
_chemical_formula_sum  ZnHgS2
_cell_volume  93.06815070988634
_cell_formula_units_Z  1
loop_
  _symmetry_equiv_pos_site_id
 _symmetry_equiv_pos_as_xyz
 1  'x, y, z'
loop_
 _atom_site_type_symbol
 _atom_site_label
 _atom_site_symmetry_multiplicity
 _atom_site_fract_x
 _atom_site_fract_y
 _atom_site_fract_z
 _atom_site_fract_occupancy
 Hg  Hg1  1  0.00384  0.00384  0.00384  1
 S  S1  1  0.13123  0.13123  0.13123  1
 S  S2  1  0.61572  0.61572  0.61572  1
 Zn  Zn1  1  0.49922  0.49922  0.49922  1
