CIF file written using JARVIS-Tools package.
data_Yb3Si
_symmetry_space_group_name_H-M  'P6_3/mmc'
_cell_length_a       6.69385
_cell_length_b       6.69384
_cell_length_c       5.23832
_cell_angle_alpha    90
_cell_angle_beta     90
_cell_angle_gamma    120

_symmetry_Int_Tables_number  194
_chemical_formula_structural  Yb3Si
_chemical_formula_sum  Yb6Si2
_cell_volume  203.27040303092397
_cell_formula_units_Z  2
loop_
  _symmetry_equiv_pos_site_id
 _symmetry_equiv_pos_as_xyz
 1  'x, y, z'
loop_
 _atom_site_type_symbol
 _atom_site_label
 _atom_site_symmetry_multiplicity
 _atom_site_fract_x
 _atom_site_fract_y
 _atom_site_fract_z
 _atom_site_fract_occupancy
 Si  Si1  1  0.33333  0.66667  0.75000  1
 Si  Si2  1  0.66667  0.33333  0.25000  1
 Yb  Yb1  1  0.17582  0.35165  0.25000  1
 Yb  Yb2  1  0.64835  0.82418  0.25000  1
 Yb  Yb3  1  0.17582  0.82418  0.25000  1
 Yb  Yb4  1  0.82418  0.64835  0.75000  1
 Yb  Yb5  1  0.35165  0.17582  0.75000  1
 Yb  Yb6  1  0.82418  0.17582  0.75000  1
