CIF file written using JARVIS-Tools package.
data_Fe2CoSe4
_symmetry_space_group_name_H-M  'Cm'
_cell_length_a       6.26736
_cell_length_b       6.26736
_cell_length_c       6.14048
_cell_angle_alpha    62.6146
_cell_angle_beta     62.6146
_cell_angle_gamma    32.6906

_symmetry_Int_Tables_number  8
_chemical_formula_structural  Fe2CoSe4
_chemical_formula_sum  Fe2CoSe4
_cell_volume  114.3292197738609
_cell_formula_units_Z  1
loop_
  _symmetry_equiv_pos_site_id
 _symmetry_equiv_pos_as_xyz
 1  'x, y, z'
loop_
 _atom_site_type_symbol
 _atom_site_label
 _atom_site_symmetry_multiplicity
 _atom_site_fract_x
 _atom_site_fract_y
 _atom_site_fract_z
 _atom_site_fract_occupancy
 Co  Co1  1  0.23726  0.23726  0.78749  1
 Fe  Fe1  1  0.50000  0.50000  0.50153  1
 Fe  Fe2  1  0.76099  0.76099  0.21398  1
 Se  Se1  1  0.61849  0.61849  0.04778  1
 Se  Se2  1  0.38145  0.38145  0.95116  1
 Se  Se3  1  0.13550  0.13550  0.52471  1
 Se  Se4  1  0.86632  0.86632  0.47335  1
