CIF file written using JARVIS-Tools package.
data_FeCoSb4
_symmetry_space_group_name_H-M  'P2/m'
_cell_length_a       3.33304
_cell_length_b       5.71755
_cell_length_c       6.49636
_cell_angle_alpha    89.8705
_cell_angle_beta     90
_cell_angle_gamma    90

_symmetry_Int_Tables_number  10
_chemical_formula_structural  FeCoSb4
_chemical_formula_sum  FeCoSb4
_cell_volume  123.79968987234919
_cell_formula_units_Z  1
loop_
  _symmetry_equiv_pos_site_id
 _symmetry_equiv_pos_as_xyz
 1  'x, y, z'
loop_
 _atom_site_type_symbol
 _atom_site_label
 _atom_site_symmetry_multiplicity
 _atom_site_fract_x
 _atom_site_fract_y
 _atom_site_fract_z
 _atom_site_fract_occupancy
 Co  Co1  1  0.50000  0.50000  0.50000  1
 Fe  Fe1  1  0.00000  0.00000  0.00000  1
 Sb  Sb1  1  0.50000  0.30277  0.14421  1
 Sb  Sb2  1  0.50000  0.69723  0.85579  1
 Sb  Sb3  1  0.00000  0.80242  0.35571  1
 Sb  Sb4  1  0.00000  0.19758  0.64429  1
