CIF file written using JARVIS-Tools package.
data_RbCNO
_symmetry_space_group_name_H-M  'Ima2'
_cell_length_a       5.74635
_cell_length_b       5.74634
_cell_length_c       5.74635
_cell_angle_alpha    114.177
_cell_angle_beta     113.622
_cell_angle_gamma    100.937

_symmetry_Int_Tables_number  46
_chemical_formula_structural  RbCNO
_chemical_formula_sum  Rb2C2N2O2
_cell_volume  143.68500501256622
_cell_formula_units_Z  2
loop_
  _symmetry_equiv_pos_site_id
 _symmetry_equiv_pos_as_xyz
 1  'x, y, z'
loop_
 _atom_site_type_symbol
 _atom_site_label
 _atom_site_symmetry_multiplicity
 _atom_site_fract_x
 _atom_site_fract_y
 _atom_site_fract_z
 _atom_site_fract_occupancy
 C  C1  1  0.00112  0.24948  0.75060  1
 C  C2  1  0.50112  0.75052  0.75164  1
 N  N1  1  0.13696  0.11597  0.75293  1
 N  N2  1  0.63696  0.88403  0.02100  1
 O  O1  1  0.86195  0.38800  0.74994  1
 O  O2  1  0.36195  0.61200  0.47395  1
 Rb  Rb1  1  0.24997  0.00000  0.24997  1
 Rb  Rb2  1  0.74997  0.50000  0.24997  1
