CIF file written using JARVIS-Tools package.
data_MnCoB2
_symmetry_space_group_name_H-M  'Pmc2_1'
_cell_length_a       3.00634
_cell_length_b       3.9945
_cell_length_c       5.39943
_cell_angle_alpha    90
_cell_angle_beta     90
_cell_angle_gamma    90

_symmetry_Int_Tables_number  26
_chemical_formula_structural  MnCoB2
_chemical_formula_sum  Mn2Co2B4
_cell_volume  64.84072110611878
_cell_formula_units_Z  2
loop_
  _symmetry_equiv_pos_site_id
 _symmetry_equiv_pos_as_xyz
 1  'x, y, z'
loop_
 _atom_site_type_symbol
 _atom_site_label
 _atom_site_symmetry_multiplicity
 _atom_site_fract_x
 _atom_site_fract_y
 _atom_site_fract_z
 _atom_site_fract_occupancy
 B  B1  1  0.00000  0.64139  0.53305  1
 B  B2  1  0.00000  0.35861  0.03305  1
 B  B3  1  0.50000  0.87416  0.46738  1
 B  B4  1  0.50000  0.12584  0.96738  1
 Co  Co1  1  0.00000  0.13490  0.67835  1
 Co  Co2  1  0.00000  0.86510  0.17835  1
 Mn  Mn1  1  0.50000  0.37402  0.32122  1
 Mn  Mn2  1  0.50000  0.62598  0.82122  1
