CIF file written using JARVIS-Tools package.
data_Ti3VS6
_symmetry_space_group_name_H-M  'R-3'
_cell_length_a       6.56381
_cell_length_b       6.5638
_cell_length_c       6.56381
_cell_angle_alpha    53.7323
_cell_angle_beta     53.7324
_cell_angle_gamma    53.7323

_symmetry_Int_Tables_number  148
_chemical_formula_structural  Ti3VS6
_chemical_formula_sum  Ti3VS6
_cell_volume  170.66143424542318
_cell_formula_units_Z  1
loop_
  _symmetry_equiv_pos_site_id
 _symmetry_equiv_pos_as_xyz
 1  'x, y, z'
loop_
 _atom_site_type_symbol
 _atom_site_label
 _atom_site_symmetry_multiplicity
 _atom_site_fract_x
 _atom_site_fract_y
 _atom_site_fract_z
 _atom_site_fract_occupancy
 S  S1  1  0.91411  0.58134  0.24411  1
 S  S2  1  0.58134  0.24411  0.91411  1
 S  S3  1  0.24411  0.91411  0.58134  1
 S  S4  1  0.75589  0.08589  0.41866  1
 S  S5  1  0.41866  0.75589  0.08589  1
 S  S6  1  0.08589  0.41866  0.75589  1
 Ti  Ti1  1  0.00000  0.00000  0.00000  1
 Ti  Ti2  1  0.33403  0.33403  0.33403  1
 Ti  Ti3  1  0.66597  0.66597  0.66597  1
 V  V1  1  0.50000  0.50000  0.50000  1
