CIF file written using JARVIS-Tools package.
data_CaDy2Te4
_symmetry_space_group_name_H-M  'P2/m'
_cell_length_a       4.38384
_cell_length_b       7.49999
_cell_length_c       7.66216
_cell_angle_alpha    71.8851
_cell_angle_beta     90
_cell_angle_gamma    90

_symmetry_Int_Tables_number  10
_chemical_formula_structural  CaDy2Te4
_chemical_formula_sum  CaDy2Te4
_cell_volume  239.4355981361772
_cell_formula_units_Z  1
loop_
  _symmetry_equiv_pos_site_id
 _symmetry_equiv_pos_as_xyz
 1  'x, y, z'
loop_
 _atom_site_type_symbol
 _atom_site_label
 _atom_site_symmetry_multiplicity
 _atom_site_fract_x
 _atom_site_fract_y
 _atom_site_fract_z
 _atom_site_fract_occupancy
 Ca  Ca1  1  0.00000  0.50000  0.50000  1
 Dy  Dy1  1  0.00000  0.00000  0.00000  1
 Dy  Dy2  1  0.50000  0.50000  0.00000  1
 Te  Te1  1  0.50000  0.76013  0.24757  1
 Te  Te2  1  0.00000  0.25208  0.24150  1
 Te  Te3  1  0.50000  0.23987  0.75243  1
 Te  Te4  1  0.00000  0.74792  0.75850  1
