CIF file written using JARVIS-Tools package.
data_Ta3Co2Mo
_symmetry_space_group_name_H-M  'Fmm2'
_cell_length_a       6.07692
_cell_length_b       4.9862
_cell_length_c       4.91697
_cell_angle_alpha    75.7019
_cell_angle_beta     52.6645
_cell_angle_gamma    51.6337

_symmetry_Int_Tables_number  42
_chemical_formula_structural  Ta3Co2Mo
_chemical_formula_sum  Ta3Co2Mo
_cell_volume  90.85431197605787
_cell_formula_units_Z  1
loop_
  _symmetry_equiv_pos_site_id
 _symmetry_equiv_pos_as_xyz
 1  'x, y, z'
loop_
 _atom_site_type_symbol
 _atom_site_label
 _atom_site_symmetry_multiplicity
 _atom_site_fract_x
 _atom_site_fract_y
 _atom_site_fract_z
 _atom_site_fract_occupancy
 Co  Co1  1  0.74974  0.75026  0.74974  1
 Co  Co2  1  0.24974  0.25026  0.24974  1
 Mo  Mo1  1  0.15928  0.84072  0.15928  1
 Ta  Ta1  1  0.84144  0.15856  0.84144  1
 Ta  Ta2  1  0.66020  0.66040  0.33960  1
 Ta  Ta3  1  0.33960  0.33980  0.66020  1
