CIF file written using JARVIS-Tools package.
data_Sr2SnN2
_symmetry_space_group_name_H-M  'I4/mmm'
_cell_length_a       3.82439
_cell_length_b       3.82425
_cell_length_c       7.38306
_cell_angle_alpha    105.01
_cell_angle_beta     105.01
_cell_angle_gamma    90

_symmetry_Int_Tables_number  139
_chemical_formula_structural  Sr2SnN2
_chemical_formula_sum  Sr2SnN2
_cell_volume  100.4765106110502
_cell_formula_units_Z  1
loop_
  _symmetry_equiv_pos_site_id
 _symmetry_equiv_pos_as_xyz
 1  'x, y, z'
loop_
 _atom_site_type_symbol
 _atom_site_label
 _atom_site_symmetry_multiplicity
 _atom_site_fract_x
 _atom_site_fract_y
 _atom_site_fract_z
 _atom_site_fract_occupancy
 N  N1  1  0.34676  0.34676  0.19351  1
 N  N2  1  0.65324  0.65324  0.80649  1
 Sn  Sn1  1  0.50000  0.50000  0.50000  1
 Sr  Sr1  1  0.83995  0.83995  0.17990  1
 Sr  Sr2  1  0.16005  0.16005  0.82010  1
