CIF file written using JARVIS-Tools package.
data_AgPS
_symmetry_space_group_name_H-M  'Pm'
_cell_length_a       5.99878
_cell_length_b       4.12577
_cell_length_c       2.81167
_cell_angle_alpha    90
_cell_angle_beta     90
_cell_angle_gamma    60.4913

_symmetry_Int_Tables_number  6
_chemical_formula_structural  AgPS
_chemical_formula_sum  AgPS
_cell_volume  60.560726408692446
_cell_formula_units_Z  1
loop_
  _symmetry_equiv_pos_site_id
 _symmetry_equiv_pos_as_xyz
 1  'x, y, z'
loop_
 _atom_site_type_symbol
 _atom_site_label
 _atom_site_symmetry_multiplicity
 _atom_site_fract_x
 _atom_site_fract_y
 _atom_site_fract_z
 _atom_site_fract_occupancy
 Ag  Ag1  1  -0.24986  0.11129  0.00000  1
 P  P1  1  0.45471  -0.13783  0.00000  1
 S  S1  1  0.08373  0.31286  0.00000  1
