CIF file written using JARVIS-Tools package.
data_Nd2Ge3Pt
_symmetry_space_group_name_H-M  'Pmm2'
_cell_length_a       4.1548
_cell_length_b       4.4343
_cell_length_c       7.31559
_cell_angle_alpha    90
_cell_angle_beta     90
_cell_angle_gamma    90

_symmetry_Int_Tables_number  25
_chemical_formula_structural  Nd2Ge3Pt
_chemical_formula_sum  Nd2Ge3Pt
_cell_volume  134.7797929501367
_cell_formula_units_Z  1
loop_
  _symmetry_equiv_pos_site_id
 _symmetry_equiv_pos_as_xyz
 1  'x, y, z'
loop_
 _atom_site_type_symbol
 _atom_site_label
 _atom_site_symmetry_multiplicity
 _atom_site_fract_x
 _atom_site_fract_y
 _atom_site_fract_z
 _atom_site_fract_occupancy
 Ge  Ge1  1  0.50000  0.00000  0.83147  1
 Ge  Ge2  1  0.50000  0.00000  0.17428  1
 Ge  Ge3  1  0.50000  0.50000  0.66443  1
 Nd  Nd1  1  0.00000  0.50000  0.00276  1
 Nd  Nd2  1  0.00000  0.00000  0.49892  1
 Pt  Pt1  1  0.50000  0.50000  0.32814  1
