CIF file written using JARVIS-Tools package.
data_Cr3Fe3SiAs2
_symmetry_space_group_name_H-M  'P-62m'
_cell_length_a       6.01326
_cell_length_b       6.01326
_cell_length_c       3.63689
_cell_angle_alpha    90
_cell_angle_beta     90
_cell_angle_gamma    120

_symmetry_Int_Tables_number  189
_chemical_formula_structural  Cr3Fe3SiAs2
_chemical_formula_sum  Cr3Fe3SiAs2
_cell_volume  113.88843919973783
_cell_formula_units_Z  1
loop_
  _symmetry_equiv_pos_site_id
 _symmetry_equiv_pos_as_xyz
 1  'x, y, z'
loop_
 _atom_site_type_symbol
 _atom_site_label
 _atom_site_symmetry_multiplicity
 _atom_site_fract_x
 _atom_site_fract_y
 _atom_site_fract_z
 _atom_site_fract_occupancy
 As  As1  1  0.66667  0.33333  0.00000  1
 As  As2  1  0.33333  0.66667  0.00000  1
 Cr  Cr1  1  0.41139  0.41139  0.50000  1
 Cr  Cr2  1  0.58861  -0.00000  0.50000  1
 Cr  Cr3  1  -0.00000  0.58861  0.50000  1
 Fe  Fe1  1  0.75825  0.75825  0.00000  1
 Fe  Fe2  1  0.24175  -0.00000  0.00000  1
 Fe  Fe3  1  -0.00000  0.24175  0.00000  1
 Si  Si1  1  0.00000  0.00000  0.50000  1
