CIF file written using JARVIS-Tools package.
data_GeF3
_symmetry_space_group_name_H-M  'P-1'
_cell_length_a       5.05368
_cell_length_b       3.01674
_cell_length_c       4.89732
_cell_angle_alpha    70.1102
_cell_angle_beta     86.7313
_cell_angle_gamma    128.948

_symmetry_Int_Tables_number  2
_chemical_formula_structural  GeF3
_chemical_formula_sum  GeF3
_cell_volume  50.71933058108612
_cell_formula_units_Z  1
loop_
  _symmetry_equiv_pos_site_id
 _symmetry_equiv_pos_as_xyz
 1  'x, y, z'
loop_
 _atom_site_type_symbol
 _atom_site_label
 _atom_site_symmetry_multiplicity
 _atom_site_fract_x
 _atom_site_fract_y
 _atom_site_fract_z
 _atom_site_fract_occupancy
 F  F1  1  0.25609  0.27703  0.41668  1
 F  F2  1  0.61173  0.95717  0.72776  1
 F  F3  1  -0.03271  0.63734  0.03888  1
 Ge  Ge1  1  0.11173  0.45669  0.72779  1
