CIF file written using JARVIS-Tools package.
data_GeH2O
_symmetry_space_group_name_H-M  'Cm'
_cell_length_a       3.31431
_cell_length_b       3.31431
_cell_length_c       5.24957
_cell_angle_alpha    112.57
_cell_angle_beta     112.57
_cell_angle_gamma    62.6584

_symmetry_Int_Tables_number  8
_chemical_formula_structural  GeH2O
_chemical_formula_sum  GeH2O
_cell_volume  45.76068030334587
_cell_formula_units_Z  1
loop_
  _symmetry_equiv_pos_site_id
 _symmetry_equiv_pos_as_xyz
 1  'x, y, z'
loop_
 _atom_site_type_symbol
 _atom_site_label
 _atom_site_symmetry_multiplicity
 _atom_site_fract_x
 _atom_site_fract_y
 _atom_site_fract_z
 _atom_site_fract_occupancy
 Ge  Ge1  1  0.75653  0.75653  0.76158  1
 H  H1  1  0.69804  0.69804  0.28889  1
 H  H2  1  0.44705  0.44705  0.79273  1
 O  O1  1  0.56945  0.56945  0.36681  1
