CIF file written using JARVIS-Tools package.
data_LiAlH
_symmetry_space_group_name_H-M  'Pmm2'
_cell_length_a       4.98453
_cell_length_b       2.9329
_cell_length_c       2.99165
_cell_angle_alpha    90
_cell_angle_beta     90
_cell_angle_gamma    90.0229

_symmetry_Int_Tables_number  25
_chemical_formula_structural  LiAlH
_chemical_formula_sum  LiAlH
_cell_volume  43.735317603471664
_cell_formula_units_Z  1
loop_
  _symmetry_equiv_pos_site_id
 _symmetry_equiv_pos_as_xyz
 1  'x, y, z'
loop_
 _atom_site_type_symbol
 _atom_site_label
 _atom_site_symmetry_multiplicity
 _atom_site_fract_x
 _atom_site_fract_y
 _atom_site_fract_z
 _atom_site_fract_occupancy
 Al  Al1  1  0.29411  0.16658  0.00000  1
 H  H1  1  -0.04839  0.16676  0.00000  1
 Li  Li1  1  0.75427  0.66665  0.00000  1
