CIF file written using JARVIS-Tools package.
data_MgN
_symmetry_space_group_name_H-M  'P1'
_cell_length_a       3.48386
_cell_length_b       4.73981
_cell_length_c       3.46632
_cell_angle_alpha    90.1018
_cell_angle_beta     60.0284
_cell_angle_gamma    76.0395

_symmetry_Int_Tables_number  1
_chemical_formula_structural  MgN
_chemical_formula_sum  Mg2N2
_cell_volume  47.6079534889376
_cell_formula_units_Z  2
loop_
  _symmetry_equiv_pos_site_id
 _symmetry_equiv_pos_as_xyz
 1  'x, y, z'
loop_
 _atom_site_type_symbol
 _atom_site_label
 _atom_site_symmetry_multiplicity
 _atom_site_fract_x
 _atom_site_fract_y
 _atom_site_fract_z
 _atom_site_fract_occupancy
 Mg  Mg1  1  0.94812  0.03681  -0.03125  1
 Mg  Mg2  1  0.49988  0.54014  0.69459  1
 N  N1  1  0.60783  0.09008  0.63966  1
 N  N2  1  0.02266  0.74282  0.43171  1
