CIF file written using JARVIS-Tools package.
data_Na2Cr3Se6
_symmetry_space_group_name_H-M  'C2/m'
_cell_length_a       6.32144
_cell_length_b       6.32143
_cell_length_c       7.28068
_cell_angle_alpha    81.6817
_cell_angle_beta     81.6817
_cell_angle_gamma    119.999

_symmetry_Int_Tables_number  12
_chemical_formula_structural  Na2Cr3Se6
_chemical_formula_sum  Na2Cr3Se6
_cell_volume  241.18657265919282
_cell_formula_units_Z  1
loop_
  _symmetry_equiv_pos_site_id
 _symmetry_equiv_pos_as_xyz
 1  'x, y, z'
loop_
 _atom_site_type_symbol
 _atom_site_label
 _atom_site_symmetry_multiplicity
 _atom_site_fract_x
 _atom_site_fract_y
 _atom_site_fract_z
 _atom_site_fract_occupancy
 Cr  Cr1  1  0.00000  0.00000  0.00000  1
 Cr  Cr2  1  0.33313  0.66687  0.00000  1
 Cr  Cr3  1  0.66687  0.33313  -0.00000  1
 Na  Na1  1  0.16666  0.83334  0.50000  1
 Na  Na2  1  0.83334  0.16666  0.50000  1
 Se  Se1  1  0.93123  0.59932  0.20204  1
 Se  Se2  1  0.26718  0.26718  0.20310  1
 Se  Se3  1  0.59932  0.93123  0.20204  1
 Se  Se4  1  0.73282  0.73282  0.79690  1
 Se  Se5  1  0.06877  0.40068  0.79796  1
 Se  Se6  1  0.40068  0.06877  0.79796  1
