CIF file written using JARVIS-Tools package.
data_MgN3
_symmetry_space_group_name_H-M  'P1'
_cell_length_a       4.48379
_cell_length_b       3.72989
_cell_length_c       4.68394
_cell_angle_alpha    128.233
_cell_angle_beta     113.602
_cell_angle_gamma    95.6305

_symmetry_Int_Tables_number  1
_chemical_formula_structural  MgN3
_chemical_formula_sum  MgN3
_cell_volume  49.44697390065038
_cell_formula_units_Z  1
loop_
  _symmetry_equiv_pos_site_id
 _symmetry_equiv_pos_as_xyz
 1  'x, y, z'
loop_
 _atom_site_type_symbol
 _atom_site_label
 _atom_site_symmetry_multiplicity
 _atom_site_fract_x
 _atom_site_fract_y
 _atom_site_fract_z
 _atom_site_fract_occupancy
 Mg  Mg1  1  -0.00729  0.01715  0.86325  1
 N  N1  1  0.89777  0.65213  0.02875  1
 N  N2  1  0.60338  0.47900  -0.02584  1
 N  N3  1  0.54076  0.42251  0.18685  1
