CIF file written using JARVIS-Tools package.
data_H2CBrCl
_symmetry_space_group_name_H-M  'C2/c'
_cell_length_a       6.27303
_cell_length_b       6.27304
_cell_length_c       14.4557
_cell_angle_alpha    68.558
_cell_angle_beta     68.558
_cell_angle_gamma    40.6187

_symmetry_Int_Tables_number  15
_chemical_formula_structural  H2CBrCl
_chemical_formula_sum  H8C4Br4Cl4
_cell_volume  341.0387677630595
_cell_formula_units_Z  4
loop_
  _symmetry_equiv_pos_site_id
 _symmetry_equiv_pos_as_xyz
 1  'x, y, z'
loop_
 _atom_site_type_symbol
 _atom_site_label
 _atom_site_symmetry_multiplicity
 _atom_site_fract_x
 _atom_site_fract_y
 _atom_site_fract_z
 _atom_site_fract_occupancy
 Br  Br1  1  0.22390  0.60625  0.13250  1
 Br  Br2  1  0.39375  0.77610  0.36750  1
 Br  Br3  1  0.77610  0.39375  0.86750  1
 Br  Br4  1  0.60625  0.22390  0.63250  1
 C  C1  1  0.76180  0.65936  0.39250  1
 C  C2  1  0.23820  0.34064  0.60750  1
 C  C3  1  0.34064  0.23820  0.10750  1
 C  C4  1  0.65936  0.76180  0.89250  1
 Cl  Cl1  1  0.00936  0.68366  0.87129  1
 Cl  Cl2  1  0.31634  -0.00936  0.62871  1
 Cl  Cl3  1  -0.00936  0.31634  0.12871  1
 Cl  Cl4  1  0.68366  0.00936  0.37129  1
 H  H1  1  0.51101  0.02142  0.15963  1
 H  H2  1  0.97858  0.48899  0.34037  1
 H  H3  1  0.48899  0.97858  0.84037  1
 H  H4  1  0.02142  0.51101  0.65963  1
 H  H5  1  0.45265  0.20937  0.02876  1
 H  H6  1  0.79063  0.54735  0.47124  1
 H  H7  1  0.54735  0.79063  0.97124  1
 H  H8  1  0.20937  0.45265  0.52876  1
