CIF file written using JARVIS-Tools package.
data_SrNF2
_symmetry_space_group_name_H-M  'P4/mmm'
_cell_length_a       3.67336
_cell_length_b       3.67336
_cell_length_c       4.77649
_cell_angle_alpha    90
_cell_angle_beta     90
_cell_angle_gamma    90

_symmetry_Int_Tables_number  123
_chemical_formula_structural  SrNF2
_chemical_formula_sum  SrNF2
_cell_volume  64.45202599554692
_cell_formula_units_Z  1
loop_
  _symmetry_equiv_pos_site_id
 _symmetry_equiv_pos_as_xyz
 1  'x, y, z'
loop_
 _atom_site_type_symbol
 _atom_site_label
 _atom_site_symmetry_multiplicity
 _atom_site_fract_x
 _atom_site_fract_y
 _atom_site_fract_z
 _atom_site_fract_occupancy
 F  F1  1  0.00000  0.00000  0.50232  1
 F  F2  1  0.50000  0.50000  0.00273  1
 N  N1  1  0.00000  0.00000  0.00227  1
 Sr  Sr1  1  0.50000  0.50000  0.50267  1
