CIF file written using JARVIS-Tools package.
data_OF2
_symmetry_space_group_name_H-M  'P1'
_cell_length_a       3.87722
_cell_length_b       3.56822
_cell_length_c       3.28299
_cell_angle_alpha    89.9249
_cell_angle_beta     79.1887
_cell_angle_gamma    114.935

_symmetry_Int_Tables_number  1
_chemical_formula_structural  OF2
_chemical_formula_sum  OF2
_cell_volume  40.289512437123555
_cell_formula_units_Z  1
loop_
  _symmetry_equiv_pos_site_id
 _symmetry_equiv_pos_as_xyz
 1  'x, y, z'
loop_
 _atom_site_type_symbol
 _atom_site_label
 _atom_site_symmetry_multiplicity
 _atom_site_fract_x
 _atom_site_fract_y
 _atom_site_fract_z
 _atom_site_fract_occupancy
 F  F1  1  0.18495  0.36254  0.60189  1
 F  F2  1  0.61124  0.07446  0.06918  1
 O  O1  1  0.89070  0.46353  0.84466  1
