CIF file written using JARVIS-Tools package.
data_SrGaH5
_symmetry_space_group_name_H-M  'Pnma'
_cell_length_a       4.71861
_cell_length_b       8.50937
_cell_length_c       8.81385
_cell_angle_alpha    90
_cell_angle_beta     90
_cell_angle_gamma    90

_symmetry_Int_Tables_number  62
_chemical_formula_structural  SrGaH5
_chemical_formula_sum  Sr4Ga4H20
_cell_volume  353.89754163690696
_cell_formula_units_Z  4
loop_
  _symmetry_equiv_pos_site_id
 _symmetry_equiv_pos_as_xyz
 1  'x, y, z'
loop_
 _atom_site_type_symbol
 _atom_site_label
 _atom_site_symmetry_multiplicity
 _atom_site_fract_x
 _atom_site_fract_y
 _atom_site_fract_z
 _atom_site_fract_occupancy
 Ga  Ga1  1  0.75000  0.33700  0.91688  1
 Ga  Ga2  1  0.25000  0.66300  0.08312  1
 Ga  Ga3  1  0.25000  0.16300  0.41688  1
 Ga  Ga4  1  0.75000  0.83700  0.58312  1
 H  H1  1  0.75000  0.28550  0.09160  1
 H  H2  1  0.02499  0.77435  0.66886  1
 H  H3  1  0.52499  0.22565  0.33114  1
 H  H4  1  0.52499  0.72565  0.16886  1
 H  H5  1  0.02499  0.27435  0.83114  1
 H  H6  1  0.75000  0.52464  0.90178  1
 H  H7  1  0.25000  0.21450  0.59160  1
 H  H8  1  0.25000  0.97536  0.40178  1
 H  H9  1  0.75000  0.02464  0.59822  1
 H  H10  1  0.25000  0.47536  0.09822  1
 H  H11  1  0.25000  0.52582  0.41169  1
 H  H12  1  0.75000  0.78550  0.40840  1
 H  H13  1  0.25000  0.02582  0.08831  1
 H  H14  1  0.75000  0.47418  0.58831  1
 H  H15  1  0.97501  0.22565  0.33114  1
 H  H16  1  0.25000  0.71450  0.90840  1
 H  H17  1  0.47501  0.27435  0.83114  1
 H  H18  1  0.97501  0.72565  0.16886  1
 H  H19  1  0.75000  0.97418  0.91169  1
 H  H20  1  0.47501  0.77435  0.66886  1
 Sr  Sr1  1  0.75000  0.99419  0.18282  1
 Sr  Sr2  1  0.25000  0.00581  0.81718  1
 Sr  Sr3  1  0.25000  0.50581  0.68282  1
 Sr  Sr4  1  0.75000  0.49419  0.31718  1
