CIF file written using JARVIS-Tools package.
data_IN
_symmetry_space_group_name_H-M  'P-1'
_cell_length_a       5.97222
_cell_length_b       7.67921
_cell_length_c       3.0135
_cell_angle_alpha    109.252
_cell_angle_beta     118.556
_cell_angle_gamma    98.9058

_symmetry_Int_Tables_number  2
_chemical_formula_structural  IN
_chemical_formula_sum  I2N2
_cell_volume  106.15846915852046
_cell_formula_units_Z  2
loop_
  _symmetry_equiv_pos_site_id
 _symmetry_equiv_pos_as_xyz
 1  'x, y, z'
loop_
 _atom_site_type_symbol
 _atom_site_label
 _atom_site_symmetry_multiplicity
 _atom_site_fract_x
 _atom_site_fract_y
 _atom_site_fract_z
 _atom_site_fract_occupancy
 I  I1  1  0.03136  0.02077  -0.10770  1
 I  I2  1  0.33464  0.62404  0.72449  1
 N  N1  1  0.72363  0.40548  0.42354  1
 N  N2  1  0.64253  0.23941  0.19358  1
