CIF file written using JARVIS-Tools package.
data_YbTiClO3
_symmetry_space_group_name_H-M  'C2/m'
_cell_length_a       5.20917
_cell_length_b       5.20916
_cell_length_c       10.1558
_cell_angle_alpha    73.1334
_cell_angle_beta     73.1334
_cell_angle_gamma    43.6201

_symmetry_Int_Tables_number  12
_chemical_formula_structural  YbTiClO3
_chemical_formula_sum  Yb2Ti2Cl2O6
_cell_volume  180.59482068486594
_cell_formula_units_Z  2
loop_
  _symmetry_equiv_pos_site_id
 _symmetry_equiv_pos_as_xyz
 1  'x, y, z'
loop_
 _atom_site_type_symbol
 _atom_site_label
 _atom_site_symmetry_multiplicity
 _atom_site_fract_x
 _atom_site_fract_y
 _atom_site_fract_z
 _atom_site_fract_occupancy
 Cl  Cl1  1  0.60931  0.60931  0.10271  1
 Cl  Cl2  1  0.39069  0.39069  0.89729  1
 O  O1  1  0.85231  0.85231  0.26140  1
 O  O2  1  0.14769  0.14769  0.73860  1
 O  O3  1  0.65932  0.65932  0.55343  1
 O  O4  1  0.34068  0.34068  0.44657  1
 O  O5  1  0.91328  0.91328  0.62300  1
 O  O6  1  0.08672  0.08672  0.37700  1
 Ti  Ti1  1  0.88642  0.88642  0.43100  1
 Ti  Ti2  1  0.11358  0.11358  0.56900  1
 Yb  Yb1  1  0.28456  0.28456  0.18743  1
 Yb  Yb2  1  0.71544  0.71544  0.81257  1
