CIF file written using JARVIS-Tools package.
data_B2Br
_symmetry_space_group_name_H-M  'Pmm2'
_cell_length_a       5.31538
_cell_length_b       3.31573
_cell_length_c       3.23419
_cell_angle_alpha    90
_cell_angle_beta     90
_cell_angle_gamma    90

_symmetry_Int_Tables_number  25
_chemical_formula_structural  B2Br
_chemical_formula_sum  B2Br
_cell_volume  57.00051287428441
_cell_formula_units_Z  1
loop_
  _symmetry_equiv_pos_site_id
 _symmetry_equiv_pos_as_xyz
 1  'x, y, z'
loop_
 _atom_site_type_symbol
 _atom_site_label
 _atom_site_symmetry_multiplicity
 _atom_site_fract_x
 _atom_site_fract_y
 _atom_site_fract_z
 _atom_site_fract_occupancy
 B  B1  1  0.00723  0.00000  0.75334  1
 B  B2  1  0.00723  0.00000  0.24666  1
 Br  Br1  1  0.38554  0.00000  0.00000  1
