CIF file written using JARVIS-Tools package.
data_BBr2
_symmetry_space_group_name_H-M  'Amm2'
_cell_length_a       7.19029
_cell_length_b       3.93788
_cell_length_c       5.34129
_cell_angle_alpha    90
_cell_angle_beta     47.7363
_cell_angle_gamma    90

_symmetry_Int_Tables_number  38
_chemical_formula_structural  BBr2
_chemical_formula_sum  BBr2
_cell_volume  111.9234037593114
_cell_formula_units_Z  1
loop_
  _symmetry_equiv_pos_site_id
 _symmetry_equiv_pos_as_xyz
 1  'x, y, z'
loop_
 _atom_site_type_symbol
 _atom_site_label
 _atom_site_symmetry_multiplicity
 _atom_site_fract_x
 _atom_site_fract_y
 _atom_site_fract_z
 _atom_site_fract_occupancy
 B  B1  1  0.00331  0.00000  0.20767  1
 Br  Br1  1  -0.12247  0.00000  -0.00964  1
 Br  Br2  1  0.34626  0.00000  -0.00980  1
