CIF file written using JARVIS-Tools package.
data_BBr3
_symmetry_space_group_name_H-M  'P1'
_cell_length_a       5.50846
_cell_length_b       6.34501
_cell_length_c       4.06799
_cell_angle_alpha    74.9584
_cell_angle_beta     82.5585
_cell_angle_gamma    113.601

_symmetry_Int_Tables_number  1
_chemical_formula_structural  BBr3
_chemical_formula_sum  BBr3
_cell_volume  121.36853215901051
_cell_formula_units_Z  1
loop_
  _symmetry_equiv_pos_site_id
 _symmetry_equiv_pos_as_xyz
 1  'x, y, z'
loop_
 _atom_site_type_symbol
 _atom_site_label
 _atom_site_symmetry_multiplicity
 _atom_site_fract_x
 _atom_site_fract_y
 _atom_site_fract_z
 _atom_site_fract_occupancy
 B  B1  1  0.94115  0.27156  0.07494  1
 Br  Br1  1  0.94245  -0.03178  0.08938  1
 Br  Br2  1  0.63306  0.27076  0.35551  1
 Br  Br3  1  0.24874  0.57573  0.78795  1
