CIF file written using JARVIS-Tools package.
data_LaN3
_symmetry_space_group_name_H-M  'P1'
_cell_length_a       4.31021
_cell_length_b       4.58525
_cell_length_c       4.24561
_cell_angle_alpha    75.3069
_cell_angle_beta     56.5203
_cell_angle_gamma    106.68

_symmetry_Int_Tables_number  1
_chemical_formula_structural  LaN3
_chemical_formula_sum  LaN3
_cell_volume  57.441712127332565
_cell_formula_units_Z  1
loop_
  _symmetry_equiv_pos_site_id
 _symmetry_equiv_pos_as_xyz
 1  'x, y, z'
loop_
 _atom_site_type_symbol
 _atom_site_label
 _atom_site_symmetry_multiplicity
 _atom_site_fract_x
 _atom_site_fract_y
 _atom_site_fract_z
 _atom_site_fract_occupancy
 La  La1  1  0.79932  0.60348  0.67284  1
 N  N1  1  0.64748  -0.03237  0.09141  1
 N  N2  1  -0.02468  0.15730  0.04995  1
 N  N3  1  0.00609  0.42685  0.11543  1
