CIF file written using JARVIS-Tools package.
data_LaS2
_symmetry_space_group_name_H-M  'Pmmm'
_cell_length_a       4.34087
_cell_length_b       4.36309
_cell_length_c       5.77666
_cell_angle_alpha    90
_cell_angle_beta     89.9755
_cell_angle_gamma    90

_symmetry_Int_Tables_number  47
_chemical_formula_structural  LaS2
_chemical_formula_sum  LaS2
_cell_volume  109.40767771295204
_cell_formula_units_Z  1
loop_
  _symmetry_equiv_pos_site_id
 _symmetry_equiv_pos_as_xyz
 1  'x, y, z'
loop_
 _atom_site_type_symbol
 _atom_site_label
 _atom_site_symmetry_multiplicity
 _atom_site_fract_x
 _atom_site_fract_y
 _atom_site_fract_z
 _atom_site_fract_occupancy
 La  La1  1  0.46666  0.00000  0.13333  1
 S  S1  1  -0.03314  0.00000  -0.16534  1
 S  S2  1  -0.03351  0.00000  0.43201  1
