CIF file written using JARVIS-Tools package.
data_Li2Au
_symmetry_space_group_name_H-M  'Pmmm'
_cell_length_a       2.98301
_cell_length_b       2.73565
_cell_length_c       6.64544
_cell_angle_alpha    90
_cell_angle_beta     90
_cell_angle_gamma    90

_symmetry_Int_Tables_number  47
_chemical_formula_structural  Li2Au
_chemical_formula_sum  Li2Au
_cell_volume  54.22987488131571
_cell_formula_units_Z  1
loop_
  _symmetry_equiv_pos_site_id
 _symmetry_equiv_pos_as_xyz
 1  'x, y, z'
loop_
 _atom_site_type_symbol
 _atom_site_label
 _atom_site_symmetry_multiplicity
 _atom_site_fract_x
 _atom_site_fract_y
 _atom_site_fract_z
 _atom_site_fract_occupancy
 Au  Au1  1  0.46670  0.00000  0.00000  1
 Li  Li1  1  -0.03335  0.00000  0.68896  1
 Li  Li2  1  -0.03335  0.00000  0.31104  1
