CIF file written using JARVIS-Tools package.
data_Li2FeP2S6
_symmetry_space_group_name_H-M  'P312'
_cell_length_a       5.85576
_cell_length_b       5.85576
_cell_length_c       6.41267
_cell_angle_alpha    90
_cell_angle_beta     90
_cell_angle_gamma    120

_symmetry_Int_Tables_number  149
_chemical_formula_structural  Li2FeP2S6
_chemical_formula_sum  Li2FeP2S6
_cell_volume  190.4307188771433
_cell_formula_units_Z  1
loop_
  _symmetry_equiv_pos_site_id
 _symmetry_equiv_pos_as_xyz
 1  'x, y, z'
loop_
 _atom_site_type_symbol
 _atom_site_label
 _atom_site_symmetry_multiplicity
 _atom_site_fract_x
 _atom_site_fract_y
 _atom_site_fract_z
 _atom_site_fract_occupancy
 Fe  Fe1  1  0.66667  0.33333  0.50000  1
 Li  Li1  1  0.00000  0.00000  0.00000  1
 Li  Li2  1  0.00000  0.00000  0.50000  1
 P  P1  1  0.33333  0.66667  0.67043  1
 P  P2  1  0.33333  0.66667  0.32957  1
 S  S1  1  0.97635  0.33689  0.73698  1
 S  S2  1  0.36054  0.02365  0.73698  1
 S  S3  1  0.66311  0.63946  0.73698  1
 S  S4  1  0.66311  0.02365  0.26302  1
 S  S5  1  0.36054  0.33689  0.26302  1
 S  S6  1  0.97635  0.63946  0.26302  1
