CIF file written using JARVIS-Tools package.
data_LiH
_symmetry_space_group_name_H-M  'P6_3/mmc'
_cell_length_a       3.24367
_cell_length_b       3.24375
_cell_length_c       5.21168
_cell_angle_alpha    51.508
_cell_angle_beta     108.134
_cell_angle_gamma    120.004

_symmetry_Int_Tables_number  194
_chemical_formula_structural  LiH
_chemical_formula_sum  Li2H2
_cell_volume  37.16782630514388
_cell_formula_units_Z  2
loop_
  _symmetry_equiv_pos_site_id
 _symmetry_equiv_pos_as_xyz
 1  'x, y, z'
loop_
 _atom_site_type_symbol
 _atom_site_label
 _atom_site_symmetry_multiplicity
 _atom_site_fract_x
 _atom_site_fract_y
 _atom_site_fract_z
 _atom_site_fract_occupancy
 H  H1  1  0.97142  0.43721  0.55312  1
 H  H2  1  0.63796  0.27055  0.05314  1
 Li  Li1  1  0.97130  0.93715  0.05316  1
 Li  Li2  1  0.63808  0.77055  0.55314  1
