CIF file written using JARVIS-Tools package.
data_Mg3MoN4
_symmetry_space_group_name_H-M  'C2/m'
_cell_length_a       5.79985
_cell_length_b       5.79986
_cell_length_c       6.04953
_cell_angle_alpha    90.3907
_cell_angle_beta     90.3906
_cell_angle_gamma    76.0835

_symmetry_Int_Tables_number  12
_chemical_formula_structural  Mg3MoN4
_chemical_formula_sum  Mg6Mo2N8
_cell_volume  197.51595279924987
_cell_formula_units_Z  2
loop_
  _symmetry_equiv_pos_site_id
 _symmetry_equiv_pos_as_xyz
 1  'x, y, z'
loop_
 _atom_site_type_symbol
 _atom_site_label
 _atom_site_symmetry_multiplicity
 _atom_site_fract_x
 _atom_site_fract_y
 _atom_site_fract_z
 _atom_site_fract_occupancy
 Mg  Mg1  1  0.15012  0.61510  0.16826  1
 Mg  Mg2  1  0.84988  0.38490  0.83174  1
 Mg  Mg3  1  0.38490  0.84988  0.83174  1
 Mg  Mg4  1  0.61510  0.15012  0.16826  1
 Mg  Mg5  1  0.11372  0.11372  0.32357  1
 Mg  Mg6  1  0.88628  0.88628  0.67643  1
 Mo  Mo1  1  0.66822  0.66822  0.33036  1
 Mo  Mo2  1  0.33178  0.33178  0.66964  1
 N  N1  1  0.12470  0.12470  0.68179  1
 N  N2  1  0.87530  0.87530  0.31821  1
 N  N3  1  0.60182  0.15137  0.82025  1
 N  N4  1  0.39818  0.84863  0.17975  1
 N  N5  1  0.84863  0.39818  0.17975  1
 N  N6  1  0.15137  0.60182  0.82025  1
 N  N7  1  0.35695  0.35695  0.36570  1
 N  N8  1  0.64305  0.64305  0.63430  1
