CIF file written using JARVIS-Tools package.
data_Ba2Cl
_symmetry_space_group_name_H-M  'P-4m2'
_cell_length_a       4.27883
_cell_length_b       4.27836
_cell_length_c       8.18703
_cell_angle_alpha    89.9956
_cell_angle_beta     90.0064
_cell_angle_gamma    89.8361

_symmetry_Int_Tables_number  115
_chemical_formula_structural  Ba2Cl
_chemical_formula_sum  Ba2Cl
_cell_volume  149.8747950235825
_cell_formula_units_Z  1
loop_
  _symmetry_equiv_pos_site_id
 _symmetry_equiv_pos_as_xyz
 1  'x, y, z'
loop_
 _atom_site_type_symbol
 _atom_site_label
 _atom_site_symmetry_multiplicity
 _atom_site_fract_x
 _atom_site_fract_y
 _atom_site_fract_z
 _atom_site_fract_occupancy
 Ba  Ba1  1  0.12354  0.46319  0.31430  1
 Ba  Ba2  1  0.62343  0.96326  0.74004  1
 Cl  Cl1  1  0.12360  0.96330  0.02717  1
