CIF file written using JARVIS-Tools package.
data_BaCl2
_symmetry_space_group_name_H-M  'Amm2'
_cell_length_a       4.26338
_cell_length_b       5.65983
_cell_length_c       4.57882
_cell_angle_alpha    89.9619
_cell_angle_beta     89.9996
_cell_angle_gamma    112.122

_symmetry_Int_Tables_number  38
_chemical_formula_structural  BaCl2
_chemical_formula_sum  BaCl2
_cell_volume  102.35304438889183
_cell_formula_units_Z  1
loop_
  _symmetry_equiv_pos_site_id
 _symmetry_equiv_pos_as_xyz
 1  'x, y, z'
loop_
 _atom_site_type_symbol
 _atom_site_label
 _atom_site_symmetry_multiplicity
 _atom_site_fract_x
 _atom_site_fract_y
 _atom_site_fract_z
 _atom_site_fract_occupancy
 Ba  Ba1  1  0.00409  0.03479  0.07116  1
 Cl  Cl1  1  0.43946  0.90537  0.57116  1
 Cl  Cl2  1  0.71314  0.45296  0.07069  1
