CIF file written using JARVIS-Tools package.
data_MnF
_symmetry_space_group_name_H-M  'P-1'
_cell_length_a       2.77359
_cell_length_b       2.74886
_cell_length_c       4.60034
_cell_angle_alpha    81.1302
_cell_angle_beta     65.5008
_cell_angle_gamma    119.076

_symmetry_Int_Tables_number  2
_chemical_formula_structural  MnF
_chemical_formula_sum  MnF
_cell_volume  24.948460070801843
_cell_formula_units_Z  1
loop_
  _symmetry_equiv_pos_site_id
 _symmetry_equiv_pos_as_xyz
 1  'x, y, z'
loop_
 _atom_site_type_symbol
 _atom_site_label
 _atom_site_symmetry_multiplicity
 _atom_site_fract_x
 _atom_site_fract_y
 _atom_site_fract_z
 _atom_site_fract_occupancy
 F  F1  1  0.64542  0.32064  0.56419  1
 Mn  Mn1  1  0.14527  0.82051  0.06421  1
