CIF file written using JARVIS-Tools package.
data_BaO3
_symmetry_space_group_name_H-M  'P1'
_cell_length_a       4.38289
_cell_length_b       3.9015
_cell_length_c       4.56245
_cell_angle_alpha    118.625
_cell_angle_beta     108.338
_cell_angle_gamma    66.4331

_symmetry_Int_Tables_number  1
_chemical_formula_structural  BaO3
_chemical_formula_sum  BaO3
_cell_volume  62.03089348830395
_cell_formula_units_Z  1
loop_
  _symmetry_equiv_pos_site_id
 _symmetry_equiv_pos_as_xyz
 1  'x, y, z'
loop_
 _atom_site_type_symbol
 _atom_site_label
 _atom_site_symmetry_multiplicity
 _atom_site_fract_x
 _atom_site_fract_y
 _atom_site_fract_z
 _atom_site_fract_occupancy
 Ba  Ba1  1  0.32443  0.32605  0.60026  1
 O  O1  1  0.01551  0.11956  0.90131  1
 O  O2  1  0.62583  0.50626  0.29110  1
 O  O3  1  0.83894  0.54247  0.11731  1
