CIF file written using JARVIS-Tools package.
data_BaYTe
_symmetry_space_group_name_H-M  'P4mm'
_cell_length_a       3.54067
_cell_length_b       3.54067
_cell_length_c       9.92264
_cell_angle_alpha    90
_cell_angle_beta     90
_cell_angle_gamma    90

_symmetry_Int_Tables_number  99
_chemical_formula_structural  BaYTe
_chemical_formula_sum  BaYTe
_cell_volume  124.39334687418466
_cell_formula_units_Z  1
loop_
  _symmetry_equiv_pos_site_id
 _symmetry_equiv_pos_as_xyz
 1  'x, y, z'
loop_
 _atom_site_type_symbol
 _atom_site_label
 _atom_site_symmetry_multiplicity
 _atom_site_fract_x
 _atom_site_fract_y
 _atom_site_fract_z
 _atom_site_fract_occupancy
 Ba  Ba1  1  0.00000  0.00000  0.40593  1
 Te  Te1  1  0.00000  0.00000  0.74065  1
 Y  Y1  1  0.00000  0.00000  0.03340  1
