CIF file written using JARVIS-Tools package.
data_Li2Si2NiO6
_symmetry_space_group_name_H-M  'P2_1'
_cell_length_a       4.65692
_cell_length_b       5.32548
_cell_length_c       9.54031
_cell_angle_alpha    86.2221
_cell_angle_beta     90
_cell_angle_gamma    90

_symmetry_Int_Tables_number  4
_chemical_formula_structural  Li2Si2NiO6
_chemical_formula_sum  Li4Si4Ni2O2
_cell_volume  236.08856084012268
_cell_formula_units_Z  2
loop_
  _symmetry_equiv_pos_site_id
 _symmetry_equiv_pos_as_xyz
 1  'x, y, z'
loop_
 _atom_site_type_symbol
 _atom_site_label
 _atom_site_symmetry_multiplicity
 _atom_site_fract_x
 _atom_site_fract_y
 _atom_site_fract_z
 _atom_site_fract_occupancy
 Li  Li1  1  0.19590  0.67056  0.67460  1
 Li  Li2  1  0.70817  0.83912  0.51785  1
 Li  Li3  1  0.20817  0.16088  0.48215  1
 Li  Li4  1  0.69590  0.32944  0.32540  1
 Ni  Ni1  1  0.62039  0.61809  0.88911  1
 Ni  Ni2  1  0.12039  0.38191  0.11089  1
 O  O1  1  0.80785  0.15718  0.16180  1
 O  O2  1  0.30785  0.84282  0.83820  1
 O  O3  1  0.86833  0.14920  0.79367  1
 O  O4  1  0.35757  0.27157  0.67405  1
 O  O5  1  0.32335  0.32897  0.94150  1
 O  O6  1  0.80133  0.19792  0.50990  1
 O  O7  1  0.30133  0.80208  0.49010  1
 O  O8  1  0.36833  0.85080  0.20633  1
 O  O9  1  0.85757  0.72843  0.32595  1
 O  O10  1  0.77875  0.60502  0.68102  1
 O  O11  1  0.27875  0.39498  0.31898  1
 O  O12  1  0.82335  0.67103  0.05850  1
 Si  Si1  1  0.71873  0.86567  0.17541  1
 Si  Si2  1  0.21534  0.69040  0.34326  1
 Si  Si3  1  0.71534  0.30960  0.65674  1
 Si  Si4  1  0.21873  0.13433  0.82459  1
