CIF file written using JARVIS-Tools package.
data_Li2VOF3
_symmetry_space_group_name_H-M  'P1'
_cell_length_a       5.58884
_cell_length_b       5.63893
_cell_length_c       5.17405
_cell_angle_alpha    89.2788
_cell_angle_beta     92.2371
_cell_angle_gamma    118.123

_symmetry_Int_Tables_number  1
_chemical_formula_structural  Li2VOF3
_chemical_formula_sum  Li4V2O2F6
_cell_volume  143.69584232872853
_cell_formula_units_Z  2
loop_
  _symmetry_equiv_pos_site_id
 _symmetry_equiv_pos_as_xyz
 1  'x, y, z'
loop_
 _atom_site_type_symbol
 _atom_site_label
 _atom_site_symmetry_multiplicity
 _atom_site_fract_x
 _atom_site_fract_y
 _atom_site_fract_z
 _atom_site_fract_occupancy
 F  F1  1  0.72124  -0.00777  0.88951  1
 F  F2  1  0.99877  0.27148  0.39063  1
 F  F3  1  0.47775  0.73247  0.41828  1
 F  F4  1  0.73809  0.48057  0.07154  1
 F  F5  1  0.00517  0.75028  0.61974  1
 F  F6  1  0.26847  0.98944  0.11448  1
 Li  Li1  1  0.34950  0.97953  0.76145  1
 Li  Li2  1  0.05592  0.66449  0.28555  1
 Li  Li3  1  0.94061  0.33361  0.74151  1
 Li  Li4  1  0.64995  0.06465  0.23394  1
 O  O1  1  0.29779  0.47960  0.92853  1
 O  O2  1  0.53471  0.29803  0.54755  1
 V  V1  1  0.61300  0.61260  0.74473  1
 V  V2  1  0.34902  0.35104  0.25257  1
