CIF file written using JARVIS-Tools package.
data_HoAsS
_symmetry_space_group_name_H-M  'Pnma'
_cell_length_a       3.82044
_cell_length_b       3.84213
_cell_length_c       16.8773
_cell_angle_alpha    90
_cell_angle_beta     90
_cell_angle_gamma    90

_symmetry_Int_Tables_number  62
_chemical_formula_structural  HoAsS
_chemical_formula_sum  Ho4As4S4
_cell_volume  247.7354900840043
_cell_formula_units_Z  4
loop_
  _symmetry_equiv_pos_site_id
 _symmetry_equiv_pos_as_xyz
 1  'x, y, z'
loop_
 _atom_site_type_symbol
 _atom_site_label
 _atom_site_symmetry_multiplicity
 _atom_site_fract_x
 _atom_site_fract_y
 _atom_site_fract_z
 _atom_site_fract_occupancy
 As  As1  1  0.75000  0.22292  0.50116  1
 As  As2  1  0.75000  0.27708  0.00116  1
 As  As3  1  0.25000  0.77708  0.49884  1
 As  As4  1  0.25000  0.72292  0.99884  1
 Ho  Ho1  1  0.25000  0.23755  0.85396  1
 Ho  Ho2  1  0.25000  0.26245  0.35396  1
 Ho  Ho3  1  0.75000  0.76245  0.14604  1
 Ho  Ho4  1  0.75000  0.73755  0.64604  1
 S  S1  1  0.25000  0.23973  0.68717  1
 S  S2  1  0.25000  0.26027  0.18717  1
 S  S3  1  0.75000  0.76027  0.31283  1
 S  S4  1  0.75000  0.73973  0.81283  1
