CIF file written using JARVIS-Tools package.
data_Ca2O
_symmetry_space_group_name_H-M  'Pm'
_cell_length_a       3.71156
_cell_length_b       3.83799
_cell_length_c       7.54017
_cell_angle_alpha    90
_cell_angle_beta     60.8209
_cell_angle_gamma    90

_symmetry_Int_Tables_number  6
_chemical_formula_structural  Ca2O
_chemical_formula_sum  Ca2O
_cell_volume  93.77909686894868
_cell_formula_units_Z  1
loop_
  _symmetry_equiv_pos_site_id
 _symmetry_equiv_pos_as_xyz
 1  'x, y, z'
loop_
 _atom_site_type_symbol
 _atom_site_label
 _atom_site_symmetry_multiplicity
 _atom_site_fract_x
 _atom_site_fract_y
 _atom_site_fract_z
 _atom_site_fract_occupancy
 Ca  Ca1  1  0.01674  0.00000  -0.08423  1
 Ca  Ca2  1  0.03298  0.00000  0.40037  1
 O  O1  1  0.35028  0.00000  0.08386  1
