CIF file written using JARVIS-Tools package.
data_CdP3
_symmetry_space_group_name_H-M  'C2'
_cell_length_a       5.48772
_cell_length_b       7.4771
_cell_length_c       4.86343
_cell_angle_alpha    34.1482
_cell_angle_beta     55.9209
_cell_angle_gamma    47.2033

_symmetry_Int_Tables_number  5
_chemical_formula_structural  CdP3
_chemical_formula_sum  CdP3
_cell_volume  82.19464101431468
_cell_formula_units_Z  1
loop_
  _symmetry_equiv_pos_site_id
 _symmetry_equiv_pos_as_xyz
 1  'x, y, z'
loop_
 _atom_site_type_symbol
 _atom_site_label
 _atom_site_symmetry_multiplicity
 _atom_site_fract_x
 _atom_site_fract_y
 _atom_site_fract_z
 _atom_site_fract_occupancy
 Cd  Cd1  1  0.37759  0.68898  0.85823  1
 P  P1  1  0.83253  0.23407  0.76779  1
 P  P2  1  0.47117  0.14228  0.85854  1
 P  P3  1  0.83137  0.68836  -0.04743  1
