CIF file written using JARVIS-Tools package.
data_NaClO
_symmetry_space_group_name_H-M  'Pm'
_cell_length_a       4.6002
_cell_length_b       4.01701
_cell_length_c       3.95118
_cell_angle_alpha    90
_cell_angle_beta     90
_cell_angle_gamma    90.4624

_symmetry_Int_Tables_number  6
_chemical_formula_structural  NaClO
_chemical_formula_sum  NaClO
_cell_volume  73.01166364728947
_cell_formula_units_Z  1
loop_
  _symmetry_equiv_pos_site_id
 _symmetry_equiv_pos_as_xyz
 1  'x, y, z'
loop_
 _atom_site_type_symbol
 _atom_site_label
 _atom_site_symmetry_multiplicity
 _atom_site_fract_x
 _atom_site_fract_y
 _atom_site_fract_z
 _atom_site_fract_occupancy
 Cl  Cl1  1  0.31156  -0.16836  0.00000  1
 Na  Na1  1  0.74215  0.33318  0.00000  1
 O  O1  1  0.94629  0.83518  0.00000  1
