CIF file written using JARVIS-Tools package.
data_MnVGaCo
_symmetry_space_group_name_H-M  'P-43m'
_cell_length_a       5.73313
_cell_length_b       5.73313
_cell_length_c       5.73313
_cell_angle_alpha    90
_cell_angle_beta     90
_cell_angle_gamma    90

_symmetry_Int_Tables_number  215
_chemical_formula_structural  MnVGaCo
_chemical_formula_sum  Mn4V4Ga4Co4
_cell_volume  188.4411516544268
_cell_formula_units_Z  4
loop_
  _symmetry_equiv_pos_site_id
 _symmetry_equiv_pos_as_xyz
 1  'x, y, z'
loop_
 _atom_site_type_symbol
 _atom_site_label
 _atom_site_symmetry_multiplicity
 _atom_site_fract_x
 _atom_site_fract_y
 _atom_site_fract_z
 _atom_site_fract_occupancy
 Co  Co1  1  0.00000  0.00000  0.00000  1
 Co  Co2  1  0.50000  0.00000  0.00000  1
 Co  Co3  1  0.00000  0.50000  0.00000  1
 Co  Co4  1  0.00000  0.00000  0.50000  1
 Ga  Ga1  1  0.75409  0.75409  0.75409  1
 Ga  Ga2  1  0.24591  0.24591  0.75409  1
 Ga  Ga3  1  0.24591  0.75409  0.24591  1
 Ga  Ga4  1  0.75409  0.24591  0.24591  1
 Mn  Mn1  1  0.50000  0.50000  0.00000  1
 Mn  Mn2  1  0.50000  0.00000  0.50000  1
 Mn  Mn3  1  0.00000  0.50000  0.50000  1
 Mn  Mn4  1  0.50000  0.50000  0.50000  1
 V  V1  1  0.25768  0.25768  0.25768  1
 V  V2  1  0.74232  0.74232  0.25768  1
 V  V3  1  0.25768  0.74232  0.74232  1
 V  V4  1  0.74232  0.25768  0.74232  1
