CIF file written using JARVIS-Tools package.
data_AgSe2
_symmetry_space_group_name_H-M  'P2/m'
_cell_length_a       4.09476
_cell_length_b       2.89776
_cell_length_c       6.0383
_cell_angle_alpha    90
_cell_angle_beta     74.0056
_cell_angle_gamma    90

_symmetry_Int_Tables_number  10
_chemical_formula_structural  AgSe2
_chemical_formula_sum  AgSe2
_cell_volume  68.87432822724814
_cell_formula_units_Z  1
loop_
  _symmetry_equiv_pos_site_id
 _symmetry_equiv_pos_as_xyz
 1  'x, y, z'
loop_
 _atom_site_type_symbol
 _atom_site_label
 _atom_site_symmetry_multiplicity
 _atom_site_fract_x
 _atom_site_fract_y
 _atom_site_fract_z
 _atom_site_fract_occupancy
 Ag  Ag1  1  0.46668  0.00000  0.13334  1
 Se  Se1  1  0.05181  0.00000  -0.16242  1
 Se  Se2  1  -0.11850  0.00000  0.42908  1
