CIF file written using JARVIS-Tools package.
data_CrHF
_symmetry_space_group_name_H-M  'P4mm'
_cell_length_a       2.32885
_cell_length_b       2.32885
_cell_length_c       5.2638
_cell_angle_alpha    90
_cell_angle_beta     90
_cell_angle_gamma    90

_symmetry_Int_Tables_number  99
_chemical_formula_structural  CrHF
_chemical_formula_sum  CrHF
_cell_volume  28.548416052149623
_cell_formula_units_Z  1
loop_
  _symmetry_equiv_pos_site_id
 _symmetry_equiv_pos_as_xyz
 1  'x, y, z'
loop_
 _atom_site_type_symbol
 _atom_site_label
 _atom_site_symmetry_multiplicity
 _atom_site_fract_x
 _atom_site_fract_y
 _atom_site_fract_z
 _atom_site_fract_occupancy
 Cr  Cr1  1  0.00000  0.00000  0.38763  1
 F  F1  1  0.00000  0.00000  0.77106  1
 H  H1  1  0.00000  0.00000  -0.03451  1
