CIF file written using JARVIS-Tools package.
data_CuSbS
_symmetry_space_group_name_H-M  'Pmn2_1'
_cell_length_a       3.69153
_cell_length_b       5.19236
_cell_length_c       6.27443
_cell_angle_alpha    90
_cell_angle_beta     90
_cell_angle_gamma    90

_symmetry_Int_Tables_number  31
_chemical_formula_structural  CuSbS
_chemical_formula_sum  Cu2Sb2S2
_cell_volume  120.26664648521543
_cell_formula_units_Z  2
loop_
  _symmetry_equiv_pos_site_id
 _symmetry_equiv_pos_as_xyz
 1  'x, y, z'
loop_
 _atom_site_type_symbol
 _atom_site_label
 _atom_site_symmetry_multiplicity
 _atom_site_fract_x
 _atom_site_fract_y
 _atom_site_fract_z
 _atom_site_fract_occupancy
 Cu  Cu1  1  0.00000  0.30721  0.00290  1
 Cu  Cu2  1  0.50000  0.69279  0.50290  1
 S  S1  1  0.50000  0.56585  0.12494  1
 S  S2  1  0.00000  0.43415  0.62494  1
 Sb  Sb1  1  0.00000  0.04835  0.37985  1
 Sb  Sb2  1  0.50000  0.95165  0.87985  1
