CIF file written using JARVIS-Tools package.
data_NdP2
_symmetry_space_group_name_H-M  'P2_1/c'
_cell_length_a       6.59437
_cell_length_b       4.03063
_cell_length_c       10.1725
_cell_angle_alpha    74.4571
_cell_angle_beta     90
_cell_angle_gamma    90

_symmetry_Int_Tables_number  14
_chemical_formula_structural  NdP2
_chemical_formula_sum  Nd4P8
_cell_volume  260.4918316975105
_cell_formula_units_Z  4
loop_
  _symmetry_equiv_pos_site_id
 _symmetry_equiv_pos_as_xyz
 1  'x, y, z'
loop_
 _atom_site_type_symbol
 _atom_site_label
 _atom_site_symmetry_multiplicity
 _atom_site_fract_x
 _atom_site_fract_y
 _atom_site_fract_z
 _atom_site_fract_occupancy
 Nd  Nd1  1  0.31523  0.57991  0.64197  1
 Nd  Nd2  1  0.68477  0.42009  0.35803  1
 Nd  Nd3  1  0.81523  0.42009  0.85803  1
 Nd  Nd4  1  0.18477  0.57991  0.14197  1
 P  P1  1  0.15854  0.96392  0.83664  1
 P  P2  1  0.84146  0.03608  0.16336  1
 P  P3  1  0.65854  0.03608  0.66336  1
 P  P4  1  0.34146  0.96392  0.33664  1
 P  P5  1  0.87848  0.80054  0.54622  1
 P  P6  1  0.12152  0.19946  0.45378  1
 P  P7  1  0.37848  0.19946  0.95378  1
 P  P8  1  0.62152  0.80054  0.04622  1
