CIF file written using JARVIS-Tools package.
data_GeC3
_symmetry_space_group_name_H-M  'P-4m2'
_cell_length_a       4.05365
_cell_length_b       5.12861
_cell_length_c       2.86646
_cell_angle_alpha    123.99
_cell_angle_beta     135
_cell_angle_gamma    66.7108

_symmetry_Int_Tables_number  115
_chemical_formula_structural  GeC3
_chemical_formula_sum  GeC3
_cell_volume  34.938283465618234
_cell_formula_units_Z  1
loop_
  _symmetry_equiv_pos_site_id
 _symmetry_equiv_pos_as_xyz
 1  'x, y, z'
loop_
 _atom_site_type_symbol
 _atom_site_label
 _atom_site_symmetry_multiplicity
 _atom_site_fract_x
 _atom_site_fract_y
 _atom_site_fract_z
 _atom_site_fract_occupancy
 C  C1  1  0.11063  0.88682  0.01969  1
 C  C2  1  0.61061  0.08892  0.72179  1
 C  C3  1  0.11064  0.68469  0.31759  1
 Ge  Ge1  1  0.61065  0.38680  0.51974  1
