CIF file written using JARVIS-Tools package.
data_GeCl3
_symmetry_space_group_name_H-M  'P1'
_cell_length_a       6.98305
_cell_length_b       4.12211
_cell_length_c       9.5039
_cell_angle_alpha    67.3915
_cell_angle_beta     122.628
_cell_angle_gamma    62.4561

_symmetry_Int_Tables_number  1
_chemical_formula_structural  GeCl3
_chemical_formula_sum  GeCl3
_cell_volume  108.03656888705423
_cell_formula_units_Z  1
loop_
  _symmetry_equiv_pos_site_id
 _symmetry_equiv_pos_as_xyz
 1  'x, y, z'
loop_
 _atom_site_type_symbol
 _atom_site_label
 _atom_site_symmetry_multiplicity
 _atom_site_fract_x
 _atom_site_fract_y
 _atom_site_fract_z
 _atom_site_fract_occupancy
 Cl  Cl1  1  0.75321  0.44205  0.35157  1
 Cl  Cl2  1  0.27735  -0.09771  0.85888  1
 Cl  Cl3  1  0.54920  0.06324  0.64285  1
 Ge  Ge1  1  0.09894  -0.11041  0.01972  1
