CIF file written using JARVIS-Tools package.
data_YbBaAl3SiN4O3
_symmetry_space_group_name_H-M  'P6_3mc'
_cell_length_a       6.15523
_cell_length_b       6.15522
_cell_length_c       10.1652
_cell_angle_alpha    90
_cell_angle_beta     90
_cell_angle_gamma    120

_symmetry_Int_Tables_number  186
_chemical_formula_structural  YbBaAl3SiN4O3
_chemical_formula_sum  Yb2Ba2Al6Si2N8O6
_cell_volume  333.5297756822229
_cell_formula_units_Z  2
loop_
  _symmetry_equiv_pos_site_id
 _symmetry_equiv_pos_as_xyz
 1  'x, y, z'
loop_
 _atom_site_type_symbol
 _atom_site_label
 _atom_site_symmetry_multiplicity
 _atom_site_fract_x
 _atom_site_fract_y
 _atom_site_fract_z
 _atom_site_fract_occupancy
 Al  Al1  1  0.33158  0.16579  0.24121  1
 Al  Al2  1  0.16579  0.33158  0.74121  1
 Al  Al3  1  0.16579  0.83421  0.74121  1
 Al  Al4  1  0.83421  0.66842  0.24121  1
 Al  Al5  1  0.66842  0.83421  0.74121  1
 Al  Al6  1  0.83421  0.16579  0.24121  1
 Ba  Ba1  1  0.66667  0.33333  0.55139  1
 Ba  Ba2  1  0.33333  0.66667  0.05139  1
 N  N1  1  0.84917  0.69834  0.06052  1
 N  N2  1  0.15083  0.30166  0.56052  1
 N  N3  1  0.84917  0.15083  0.06052  1
 N  N4  1  0.30166  0.15083  0.06052  1
 N  N5  1  0.00000  0.00000  0.82176  1
 N  N6  1  0.00000  0.00000  0.32176  1
 N  N7  1  0.15083  0.84917  0.56052  1
 N  N8  1  0.69834  0.84917  0.56052  1
 O  O1  1  0.48778  0.97556  0.79298  1
 O  O2  1  0.48778  0.51222  0.79298  1
 O  O3  1  0.51222  0.02444  0.29298  1
 O  O4  1  0.51222  0.48778  0.29298  1
 O  O5  1  0.97556  0.48778  0.29298  1
 O  O6  1  0.02444  0.51222  0.79298  1
 Si  Si1  1  0.00000  0.00000  0.50066  1
 Si  Si2  1  0.00000  0.00000  0.00066  1
 Yb  Yb1  1  0.33333  0.66667  0.42536  1
 Yb  Yb2  1  0.66667  0.33333  0.92536  1
