CIF file written using JARVIS-Tools package.
data_MnCdSe4
_symmetry_space_group_name_H-M  'P2_1/c'
_cell_length_a       6.41724
_cell_length_b       6.41157
_cell_length_c       6.39753
_cell_angle_alpha    88.5011
_cell_angle_beta     90
_cell_angle_gamma    90

_symmetry_Int_Tables_number  14
_chemical_formula_structural  MnCdSe4
_chemical_formula_sum  Mn2Cd2Se8
_cell_volume  263.13362592351746
_cell_formula_units_Z  2
loop_
  _symmetry_equiv_pos_site_id
 _symmetry_equiv_pos_as_xyz
 1  'x, y, z'
loop_
 _atom_site_type_symbol
 _atom_site_label
 _atom_site_symmetry_multiplicity
 _atom_site_fract_x
 _atom_site_fract_y
 _atom_site_fract_z
 _atom_site_fract_occupancy
 Cd  Cd1  1  0.00000  0.50000  0.50000  1
 Cd  Cd2  1  0.50000  -0.00000  0.50000  1
 Mn  Mn1  1  0.00000  0.00000  0.00000  1
 Mn  Mn2  1  0.50000  0.50000  -0.00000  1
 Se  Se1  1  0.64010  0.14082  0.08298  1
 Se  Se2  1  0.14010  0.35918  0.91702  1
 Se  Se3  1  0.40485  0.60071  0.36489  1
 Se  Se4  1  0.90485  0.89929  0.63511  1
 Se  Se5  1  0.35990  0.85918  0.91702  1
 Se  Se6  1  0.85990  0.64082  0.08298  1
 Se  Se7  1  0.59515  0.39929  0.63511  1
 Se  Se8  1  0.09515  0.10071  0.36489  1
