CIF file written using JARVIS-Tools package.
data_In2I
_symmetry_space_group_name_H-M  'Pmmm'
_cell_length_a       5.8514
_cell_length_b       3.73521
_cell_length_c       6.12848
_cell_angle_alpha    90
_cell_angle_beta     90
_cell_angle_gamma    90

_symmetry_Int_Tables_number  47
_chemical_formula_structural  In2I
_chemical_formula_sum  In2I
_cell_volume  133.9454148768953
_cell_formula_units_Z  1
loop_
  _symmetry_equiv_pos_site_id
 _symmetry_equiv_pos_as_xyz
 1  'x, y, z'
loop_
 _atom_site_type_symbol
 _atom_site_label
 _atom_site_symmetry_multiplicity
 _atom_site_fract_x
 _atom_site_fract_y
 _atom_site_fract_z
 _atom_site_fract_occupancy
 I  I1  1  0.46676  0.00000  0.00000  1
 In  In1  1  -0.03338  0.00000  0.75006  1
 In  In2  1  -0.03338  0.00000  0.24994  1
