CIF file written using JARVIS-Tools package.
data_InS2
_symmetry_space_group_name_H-M  'P-1'
_cell_length_a       6.49362
_cell_length_b       3.83055
_cell_length_c       7.15851
_cell_angle_alpha    48.8296
_cell_angle_beta     115.007
_cell_angle_gamma    147.864

_symmetry_Int_Tables_number  2
_chemical_formula_structural  InS2
_chemical_formula_sum  InS2
_cell_volume  67.14175500923537
_cell_formula_units_Z  1
loop_
  _symmetry_equiv_pos_site_id
 _symmetry_equiv_pos_as_xyz
 1  'x, y, z'
loop_
 _atom_site_type_symbol
 _atom_site_label
 _atom_site_symmetry_multiplicity
 _atom_site_fract_x
 _atom_site_fract_y
 _atom_site_fract_z
 _atom_site_fract_occupancy
 In  In1  1  0.80559  -0.17284  0.08141  1
 S  S1  1  0.01667  0.27927  0.35705  1
 S  S2  1  0.59452  0.37512  0.80576  1
