CIF file written using JARVIS-Tools package.
data_KTe2
_symmetry_space_group_name_H-M  'P2/m'
_cell_length_a       6.29113
_cell_length_b       4.20886
_cell_length_c       6.70263
_cell_angle_alpha    128.868
_cell_angle_beta     64.2426
_cell_angle_gamma    90.0249

_symmetry_Int_Tables_number  10
_chemical_formula_structural  KTe2
_chemical_formula_sum  KTe2
_cell_volume  114.68793711652063
_cell_formula_units_Z  1
loop_
  _symmetry_equiv_pos_site_id
 _symmetry_equiv_pos_as_xyz
 1  'x, y, z'
loop_
 _atom_site_type_symbol
 _atom_site_label
 _atom_site_symmetry_multiplicity
 _atom_site_fract_x
 _atom_site_fract_y
 _atom_site_fract_z
 _atom_site_fract_occupancy
 K  K1  1  0.07902  0.86439  -0.06410  1
 Te  Te1  1  0.35639  0.69041  0.26182  1
 Te  Te2  1  0.80216  0.03799  0.60965  1
