CIF file written using JARVIS-Tools package.
data_LiB2
_symmetry_space_group_name_H-M  'Cmmm'
_cell_length_a       4.41903
_cell_length_b       2.81434
_cell_length_c       3.08464
_cell_angle_alpha    90
_cell_angle_beta     110.354
_cell_angle_gamma    90

_symmetry_Int_Tables_number  65
_chemical_formula_structural  LiB2
_chemical_formula_sum  LiB2
_cell_volume  35.967442756058134
_cell_formula_units_Z  1
loop_
  _symmetry_equiv_pos_site_id
 _symmetry_equiv_pos_as_xyz
 1  'x, y, z'
loop_
 _atom_site_type_symbol
 _atom_site_label
 _atom_site_symmetry_multiplicity
 _atom_site_fract_x
 _atom_site_fract_y
 _atom_site_fract_z
 _atom_site_fract_occupancy
 B  B1  1  -0.06359  0.00000  -0.13167  1
 B  B2  1  -0.00307  0.00000  0.39843  1
 Li  Li1  1  0.46667  0.00000  0.13325  1
