CIF file written using JARVIS-Tools package.
data_Li2I
_symmetry_space_group_name_H-M  'C2/m'
_cell_length_a       3.88551
_cell_length_b       3.88608
_cell_length_c       7.19317
_cell_angle_alpha    61.8535
_cell_angle_beta     99.7885
_cell_angle_gamma    116.234

_symmetry_Int_Tables_number  12
_chemical_formula_structural  Li2I
_chemical_formula_sum  Li2I
_cell_volume  85.80247767476901
_cell_formula_units_Z  1
loop_
  _symmetry_equiv_pos_site_id
 _symmetry_equiv_pos_as_xyz
 1  'x, y, z'
loop_
 _atom_site_type_symbol
 _atom_site_label
 _atom_site_symmetry_multiplicity
 _atom_site_fract_x
 _atom_site_fract_y
 _atom_site_fract_z
 _atom_site_fract_occupancy
 I  I1  1  0.11758  0.03420  0.88374  1
 Li  Li1  1  0.79960  0.63476  0.60126  1
 Li  Li2  1  0.43571  0.43378  0.16605  1
