CIF file written using JARVIS-Tools package.
data_MgO2
_symmetry_space_group_name_H-M  'P-1'
_cell_length_a       3.72933
_cell_length_b       3.00467
_cell_length_c       5.46063
_cell_angle_alpha    140.008
_cell_angle_beta     106.528
_cell_angle_gamma    100.982

_symmetry_Int_Tables_number  2
_chemical_formula_structural  MgO2
_chemical_formula_sum  MgO2
_cell_volume  28.224810003746583
_cell_formula_units_Z  1
loop_
  _symmetry_equiv_pos_site_id
 _symmetry_equiv_pos_as_xyz
 1  'x, y, z'
loop_
 _atom_site_type_symbol
 _atom_site_label
 _atom_site_symmetry_multiplicity
 _atom_site_fract_x
 _atom_site_fract_y
 _atom_site_fract_z
 _atom_site_fract_occupancy
 Mg  Mg1  1  0.07882  0.19569  0.12092  1
 O  O1  1  0.60250  0.35698  -0.06174  1
 O  O2  1  0.55517  0.03446  0.30364  1
