CIF file written using JARVIS-Tools package.
data_RbNaO
_symmetry_space_group_name_H-M  'Pmmm'
_cell_length_a       4.34464
_cell_length_b       6.85422
_cell_length_c       4.83661
_cell_angle_alpha    90
_cell_angle_beta     90
_cell_angle_gamma    52.0708

_symmetry_Int_Tables_number  47
_chemical_formula_structural  RbNaO
_chemical_formula_sum  RbNaO
_cell_volume  113.60680140859478
_cell_formula_units_Z  1
loop_
  _symmetry_equiv_pos_site_id
 _symmetry_equiv_pos_as_xyz
 1  'x, y, z'
loop_
 _atom_site_type_symbol
 _atom_site_label
 _atom_site_symmetry_multiplicity
 _atom_site_fract_x
 _atom_site_fract_y
 _atom_site_fract_z
 _atom_site_fract_occupancy
 Na  Na1  1  -0.07878  -0.04510  0.00000  1
 O  O1  1  0.42116  -0.04511  0.00000  1
 Rb  Rb1  1  -0.07781  0.45486  0.00000  1
