CIF file written using JARVIS-Tools package.
data_LiV4O5F7
_symmetry_space_group_name_H-M  'P1'
_cell_length_a       5.00172
_cell_length_b       5.26721
_cell_length_c       8.70959
_cell_angle_alpha    72.4462
_cell_angle_beta     75.0352
_cell_angle_gamma    62.9037

_symmetry_Int_Tables_number  1
_chemical_formula_structural  LiV4O5F7
_chemical_formula_sum  LiV4O5F7
_cell_volume  192.77449342818826
_cell_formula_units_Z  1
loop_
  _symmetry_equiv_pos_site_id
 _symmetry_equiv_pos_as_xyz
 1  'x, y, z'
loop_
 _atom_site_type_symbol
 _atom_site_label
 _atom_site_symmetry_multiplicity
 _atom_site_fract_x
 _atom_site_fract_y
 _atom_site_fract_z
 _atom_site_fract_occupancy
 F  F1  1  0.18807  0.56477  0.68472  1
 F  F2  1  0.31784  0.94127  0.81057  1
 F  F3  1  0.32608  0.32385  0.42721  1
 F  F4  1  0.67076  0.08340  0.18188  1
 F  F5  1  0.74759  0.38944  0.88298  1
 F  F6  1  0.26278  0.86831  0.38100  1
 F  F7  1  0.25777  0.61419  0.12274  1
 Li  Li1  1  0.67897  0.52737  0.09912  1
 O  O1  1  0.73689  0.12951  0.62521  1
 O  O2  1  0.82027  0.81119  0.93642  1
 O  O3  1  0.16418  0.16394  0.08137  1
 O  O4  1  0.68404  0.67380  0.57802  1
 O  O5  1  0.82642  0.42823  0.31874  1
 V  V1  1  0.21491  0.24684  0.24798  1
 V  V2  1  0.76226  0.78857  0.73283  1
 V  V3  1  0.54674  0.49215  0.50405  1
 V  V4  1  0.99306  -0.00182  0.98881  1
