CIF file written using JARVIS-Tools package.
data_TiPS4
_symmetry_space_group_name_H-M  'I222'
_cell_length_a       6.13793
_cell_length_b       6.13793
_cell_length_c       6.13793
_cell_angle_alpha    122.194
_cell_angle_beta     126.824
_cell_angle_gamma    82.4069

_symmetry_Int_Tables_number  23
_chemical_formula_structural  TiPS4
_chemical_formula_sum  TiPS4
_cell_volume  150.54614823144325
_cell_formula_units_Z  1
loop_
  _symmetry_equiv_pos_site_id
 _symmetry_equiv_pos_as_xyz
 1  'x, y, z'
loop_
 _atom_site_type_symbol
 _atom_site_label
 _atom_site_symmetry_multiplicity
 _atom_site_fract_x
 _atom_site_fract_y
 _atom_site_fract_z
 _atom_site_fract_occupancy
 P  P1  1  0.00000  0.00000  0.00000  1
 S  S1  1  0.66139  0.65176  0.56050  1
 S  S2  1  0.33861  0.89910  -0.00963  1
 S  S3  1  0.90873  0.34824  0.00963  1
 S  S4  1  0.09127  0.10090  0.43950  1
 Ti  Ti1  1  -0.00000  0.50000  0.50000  1
