CIF file written using JARVIS-Tools package.
data_PbS2
_symmetry_space_group_name_H-M  'C2/m'
_cell_length_a       4.02793
_cell_length_b       7.23293
_cell_length_c       4.0202
_cell_angle_alpha    41.2395
_cell_angle_beta     84.24
_cell_angle_gamma    75.3475

_symmetry_Int_Tables_number  12
_chemical_formula_structural  PbS2
_chemical_formula_sum  PbS2
_cell_volume  73.95268837636556
_cell_formula_units_Z  1
loop_
  _symmetry_equiv_pos_site_id
 _symmetry_equiv_pos_as_xyz
 1  'x, y, z'
loop_
 _atom_site_type_symbol
 _atom_site_label
 _atom_site_symmetry_multiplicity
 _atom_site_fract_x
 _atom_site_fract_y
 _atom_site_fract_z
 _atom_site_fract_occupancy
 Pb  Pb1  1  0.04978  0.91864  0.85461  1
 S  S1  1  0.50821  0.23133  -0.00028  1
 S  S2  1  0.59206  0.60614  0.70856  1
