CIF file written using JARVIS-Tools package.
data_Pb2S
_symmetry_space_group_name_H-M  'Amm2'
_cell_length_a       7.05777
_cell_length_b       5.78045
_cell_length_c       4.0831
_cell_angle_alpha    134.95
_cell_angle_beta     73.1653
_cell_angle_gamma    127.899

_symmetry_Int_Tables_number  38
_chemical_formula_structural  Pb2S
_chemical_formula_sum  Pb2S
_cell_volume  89.86614538508526
_cell_formula_units_Z  1
loop_
  _symmetry_equiv_pos_site_id
 _symmetry_equiv_pos_as_xyz
 1  'x, y, z'
loop_
 _atom_site_type_symbol
 _atom_site_label
 _atom_site_symmetry_multiplicity
 _atom_site_fract_x
 _atom_site_fract_y
 _atom_site_fract_z
 _atom_site_fract_occupancy
 Pb  Pb1  1  0.42902  0.49215  0.23874  1
 Pb  Pb2  1  0.00353  0.56686  0.02639  1
 S  S1  1  0.89259  0.95618  0.97122  1
