CIF file written using JARVIS-Tools package.
data_BeBr3
_symmetry_space_group_name_H-M  'P1'
_cell_length_a       5.10067
_cell_length_b       5.75752
_cell_length_c       3.67857
_cell_angle_alpha    95.9526
_cell_angle_beta     83.2968
_cell_angle_gamma    74.4332

_symmetry_Int_Tables_number  1
_chemical_formula_structural  BeBr3
_chemical_formula_sum  BeBr3
_cell_volume  102.32066784956193
_cell_formula_units_Z  1
loop_
  _symmetry_equiv_pos_site_id
 _symmetry_equiv_pos_as_xyz
 1  'x, y, z'
loop_
 _atom_site_type_symbol
 _atom_site_label
 _atom_site_symmetry_multiplicity
 _atom_site_fract_x
 _atom_site_fract_y
 _atom_site_fract_z
 _atom_site_fract_occupancy
 Be  Be1  1  0.45230  0.30009  0.07444  1
 Br  Br1  1  0.80856  -0.00698  0.95165  1
 Br  Br2  1  0.17952  0.31066  0.62970  1
 Br  Br3  1  0.50189  0.64889  0.26288  1
