CIF file written using JARVIS-Tools package.
data_ErAlPd
_symmetry_space_group_name_H-M  'Pnma'
_cell_length_a       4.39429
_cell_length_b       6.84331
_cell_length_c       7.75914
_cell_angle_alpha    90
_cell_angle_beta     90
_cell_angle_gamma    90

_symmetry_Int_Tables_number  62
_chemical_formula_structural  ErAlPd
_chemical_formula_sum  Er4Al4Pd4
_cell_volume  233.32906830450878
_cell_formula_units_Z  4
loop_
  _symmetry_equiv_pos_site_id
 _symmetry_equiv_pos_as_xyz
 1  'x, y, z'
loop_
 _atom_site_type_symbol
 _atom_site_label
 _atom_site_symmetry_multiplicity
 _atom_site_fract_x
 _atom_site_fract_y
 _atom_site_fract_z
 _atom_site_fract_occupancy
 Al  Al1  1  0.25000  0.14531  0.93719  1
 Al  Al2  1  0.25000  0.64531  0.56281  1
 Al  Al3  1  0.75000  0.85469  0.06281  1
 Al  Al4  1  0.75000  0.35469  0.43719  1
 Er  Er1  1  0.25000  0.03145  0.31936  1
 Er  Er2  1  0.25000  0.53145  0.18064  1
 Er  Er3  1  0.75000  0.96855  0.68064  1
 Er  Er4  1  0.75000  0.46855  0.81936  1
 Pd  Pd1  1  0.25000  0.26930  0.61728  1
 Pd  Pd2  1  0.25000  0.76930  0.88272  1
 Pd  Pd3  1  0.75000  0.73070  0.38272  1
 Pd  Pd4  1  0.75000  0.23070  0.11728  1
