CIF file written using JARVIS-Tools package.
data_CoBiO3
_symmetry_space_group_name_H-M  'Pnma'
_cell_length_a       5.34271
_cell_length_b       5.51303
_cell_length_c       7.58673
_cell_angle_alpha    90
_cell_angle_beta     90
_cell_angle_gamma    90

_symmetry_Int_Tables_number  62
_chemical_formula_structural  CoBiO3
_chemical_formula_sum  Co4Bi4O2
_cell_volume  223.4634530471301
_cell_formula_units_Z  4
loop_
  _symmetry_equiv_pos_site_id
 _symmetry_equiv_pos_as_xyz
 1  'x, y, z'
loop_
 _atom_site_type_symbol
 _atom_site_label
 _atom_site_symmetry_multiplicity
 _atom_site_fract_x
 _atom_site_fract_y
 _atom_site_fract_z
 _atom_site_fract_occupancy
 Bi  Bi1  1  0.51018  0.55529  0.25000  1
 Bi  Bi2  1  0.98982  0.05529  0.25000  1
 Bi  Bi3  1  0.48982  0.44471  0.75000  1
 Bi  Bi4  1  0.01018  0.94471  0.75000  1
 Co  Co1  1  0.50000  0.00000  0.00000  1
 Co  Co2  1  0.00000  0.50000  0.50000  1
 Co  Co3  1  0.50000  0.00000  0.50000  1
 Co  Co4  1  0.00000  0.50000  0.00000  1
 O  O1  1  0.41646  0.97489  0.25000  1
 O  O2  1  0.79688  0.79342  0.45855  1
 O  O3  1  0.58354  0.02511  0.75000  1
 O  O4  1  0.91646  0.52511  0.75000  1
 O  O5  1  0.08354  0.47489  0.25000  1
 O  O6  1  0.20312  0.20658  0.95855  1
 O  O7  1  0.20312  0.20658  0.54145  1
 O  O8  1  0.29688  0.70658  0.95855  1
 O  O9  1  0.79688  0.79342  0.04145  1
 O  O10  1  0.29688  0.70658  0.54145  1
 O  O11  1  0.70312  0.29342  0.45855  1
 O  O12  1  0.70312  0.29342  0.04145  1
