CIF file written using JARVIS-Tools package.
data_LiMgBr
_symmetry_space_group_name_H-M  'I4mm'
_cell_length_a       6.69688
_cell_length_b       6.69688
_cell_length_c       6.69688
_cell_angle_alpha    149.969
_cell_angle_beta     149.969
_cell_angle_gamma    42.9864

_symmetry_Int_Tables_number  107
_chemical_formula_structural  LiMgBr
_chemical_formula_sum  LiMgBr
_cell_volume  75.03010695563161
_cell_formula_units_Z  1
loop_
  _symmetry_equiv_pos_site_id
 _symmetry_equiv_pos_as_xyz
 1  'x, y, z'
loop_
 _atom_site_type_symbol
 _atom_site_label
 _atom_site_symmetry_multiplicity
 _atom_site_fract_x
 _atom_site_fract_y
 _atom_site_fract_z
 _atom_site_fract_occupancy
 Br  Br1  1  0.27202  0.27202  0.00000  1
 Li  Li1  1  0.70928  0.70928  -0.00000  1
 Mg  Mg1  1  0.01869  0.01869  0.00000  1
