CIF file written using JARVIS-Tools package.
data_LiBrN
_symmetry_space_group_name_H-M  'Pm'
_cell_length_a       4.24046
_cell_length_b       6.76152
_cell_length_c       4.07959
_cell_angle_alpha    90
_cell_angle_beta     90
_cell_angle_gamma    48.8223

_symmetry_Int_Tables_number  6
_chemical_formula_structural  LiBrN
_chemical_formula_sum  LiBrN
_cell_volume  88.04009886624502
_cell_formula_units_Z  1
loop_
  _symmetry_equiv_pos_site_id
 _symmetry_equiv_pos_as_xyz
 1  'x, y, z'
loop_
 _atom_site_type_symbol
 _atom_site_label
 _atom_site_symmetry_multiplicity
 _atom_site_fract_x
 _atom_site_fract_y
 _atom_site_fract_z
 _atom_site_fract_occupancy
 Br  Br1  1  0.00743  -0.20585  0.00000  1
 Li  Li1  1  0.26997  0.01956  0.00000  1
 N  N1  1  -0.00537  0.40848  0.00000  1
