CIF file written using JARVIS-Tools package.
data_Zn2BO4
_symmetry_space_group_name_H-M  'Pnma'
_cell_length_a       3.18377
_cell_length_b       9.3364
_cell_length_c       9.41223
_cell_angle_alpha    90
_cell_angle_beta     90
_cell_angle_gamma    90

_symmetry_Int_Tables_number  62
_chemical_formula_structural  Zn2BO4
_chemical_formula_sum  Zn8B4O6
_cell_volume  279.7781144698821
_cell_formula_units_Z  4
loop_
  _symmetry_equiv_pos_site_id
 _symmetry_equiv_pos_as_xyz
 1  'x, y, z'
loop_
 _atom_site_type_symbol
 _atom_site_label
 _atom_site_symmetry_multiplicity
 _atom_site_fract_x
 _atom_site_fract_y
 _atom_site_fract_z
 _atom_site_fract_occupancy
 B  B1  1  0.25000  0.12171  0.66100  1
 B  B2  1  0.75000  0.87829  0.33900  1
 B  B3  1  0.75000  0.62171  0.83900  1
 B  B4  1  0.25000  0.37829  0.16100  1
 O  O1  1  0.25000  0.61654  0.51319  1
 O  O2  1  0.25000  0.25194  0.23927  1
 O  O3  1  0.75000  0.11654  0.98681  1
 O  O4  1  0.75000  0.75194  0.26073  1
 O  O5  1  0.25000  0.24806  0.73927  1
 O  O6  1  0.25000  0.50976  0.22915  1
 O  O7  1  0.75000  0.49024  0.77085  1
 O  O8  1  0.75000  0.74806  0.76073  1
 O  O9  1  0.25000  0.99024  0.72915  1
 O  O10  1  0.25000  0.37318  0.01533  1
 O  O11  1  0.75000  0.62682  0.98467  1
 O  O12  1  0.25000  0.88346  0.01319  1
 O  O13  1  0.25000  0.12682  0.51533  1
 O  O14  1  0.75000  0.00976  0.27085  1
 O  O15  1  0.75000  0.38346  0.48681  1
 O  O16  1  0.75000  0.87318  0.48467  1
 Zn  Zn1  1  0.25000  0.80638  0.60626  1
 Zn  Zn2  1  0.75000  0.19362  0.39374  1
 Zn  Zn3  1  0.75000  0.30638  0.89374  1
 Zn  Zn4  1  0.25000  0.69362  0.10626  1
 Zn  Zn5  1  0.25000  0.43083  0.62030  1
 Zn  Zn6  1  0.75000  0.56917  0.37970  1
 Zn  Zn7  1  0.75000  0.93083  0.87970  1
 Zn  Zn8  1  0.25000  0.06917  0.12030  1
