CIF file written using JARVIS-Tools package.
data_Li4PBr
_symmetry_space_group_name_H-M  'R-3m'
_cell_length_a       7.50373
_cell_length_b       7.50373
_cell_length_c       7.50373
_cell_angle_alpha    31.9425
_cell_angle_beta     31.9425
_cell_angle_gamma    31.9425

_symmetry_Int_Tables_number  166
_chemical_formula_structural  Li4PBr
_chemical_formula_sum  Li4PBr
_cell_volume  105.06780951148554
_cell_formula_units_Z  1
loop_
  _symmetry_equiv_pos_site_id
 _symmetry_equiv_pos_as_xyz
 1  'x, y, z'
loop_
 _atom_site_type_symbol
 _atom_site_label
 _atom_site_symmetry_multiplicity
 _atom_site_fract_x
 _atom_site_fract_y
 _atom_site_fract_z
 _atom_site_fract_occupancy
 Br  Br1  1  0.50000  0.50000  0.50000  1
 Li  Li1  1  0.89163  0.89163  0.89163  1
 Li  Li2  1  0.10837  0.10837  0.10837  1
 Li  Li3  1  0.64613  0.64613  0.64613  1
 Li  Li4  1  0.35387  0.35387  0.35387  1
 P  P1  1  0.00000  0.00000  0.00000  1
