CIF file written using JARVIS-Tools package.
data_PdSeBr
_symmetry_space_group_name_H-M  'P4mm'
_cell_length_a       2.9033
_cell_length_b       2.9033
_cell_length_c       8.49217
_cell_angle_alpha    90
_cell_angle_beta     90
_cell_angle_gamma    90

_symmetry_Int_Tables_number  99
_chemical_formula_structural  PdSeBr
_chemical_formula_sum  PdSeBr
_cell_volume  71.58159228310831
_cell_formula_units_Z  1
loop_
  _symmetry_equiv_pos_site_id
 _symmetry_equiv_pos_as_xyz
 1  'x, y, z'
loop_
 _atom_site_type_symbol
 _atom_site_label
 _atom_site_symmetry_multiplicity
 _atom_site_fract_x
 _atom_site_fract_y
 _atom_site_fract_z
 _atom_site_fract_occupancy
 Br  Br1  1  0.00000  0.00000  0.37995  1
 Pd  Pd1  1  0.00000  0.00000  0.67597  1
 Se  Se1  1  0.00000  0.00000  -0.04566  1
