CIF file written using JARVIS-Tools package.
data_Rb2PdBr
_symmetry_space_group_name_H-M  'Immm'
_cell_length_a       8.38539
_cell_length_b       8.38539
_cell_length_c       8.38539
_cell_angle_alpha    153.235
_cell_angle_beta     87.0492
_cell_angle_gamma    99.1267

_symmetry_Int_Tables_number  71
_chemical_formula_structural  Rb2PdBr
_chemical_formula_sum  Rb2PdBr
_cell_volume  256.7182389739899
_cell_formula_units_Z  1
loop_
  _symmetry_equiv_pos_site_id
 _symmetry_equiv_pos_as_xyz
 1  'x, y, z'
loop_
 _atom_site_type_symbol
 _atom_site_label
 _atom_site_symmetry_multiplicity
 _atom_site_fract_x
 _atom_site_fract_y
 _atom_site_fract_z
 _atom_site_fract_occupancy
 Br  Br1  1  0.00000  0.00000  0.00000  1
 Pd  Pd1  1  0.50000  0.00000  0.50000  1
 Rb  Rb1  1  0.25359  0.00000  0.25359  1
 Rb  Rb2  1  0.74641  0.00000  0.74641  1
