CIF file written using JARVIS-Tools package.
data_BaLiBi
_symmetry_space_group_name_H-M  'Pm'
_cell_length_a       6.6118
_cell_length_b       5.10447
_cell_length_c       3.837
_cell_angle_alpha    90
_cell_angle_beta     90
_cell_angle_gamma    112.578

_symmetry_Int_Tables_number  6
_chemical_formula_structural  BaLiBi
_chemical_formula_sum  BaLiBi
_cell_volume  119.57292731071327
_cell_formula_units_Z  1
loop_
  _symmetry_equiv_pos_site_id
 _symmetry_equiv_pos_as_xyz
 1  'x, y, z'
loop_
 _atom_site_type_symbol
 _atom_site_label
 _atom_site_symmetry_multiplicity
 _atom_site_fract_x
 _atom_site_fract_y
 _atom_site_fract_z
 _atom_site_fract_occupancy
 Ba  Ba1  1  0.47451  0.11875  0.00000  1
 Bi  Bi1  1  -0.12256  -0.18021  0.00000  1
 Li  Li1  1  0.04546  0.40360  0.00000  1
