CIF file written using JARVIS-Tools package.
data_Ba3MgTaNbO9
_symmetry_space_group_name_H-M  'P3m1'
_cell_length_a       5.82654
_cell_length_b       5.82654
_cell_length_c       7.15428
_cell_angle_alpha    90
_cell_angle_beta     90
_cell_angle_gamma    120

_symmetry_Int_Tables_number  156
_chemical_formula_structural  Ba3MgTaNbO9
_chemical_formula_sum  Ba3MgTaNbO9
_cell_volume  210.33787070726567
_cell_formula_units_Z  1
loop_
  _symmetry_equiv_pos_site_id
 _symmetry_equiv_pos_as_xyz
 1  'x, y, z'
loop_
 _atom_site_type_symbol
 _atom_site_label
 _atom_site_symmetry_multiplicity
 _atom_site_fract_x
 _atom_site_fract_y
 _atom_site_fract_z
 _atom_site_fract_occupancy
 Ba  Ba1  1  0.33333  0.66667  0.00061  1
 Ba  Ba2  1  0.66667  0.33333  0.66447  1
 Ba  Ba3  1  0.00000  0.00000  0.33379  1
 Mg  Mg1  1  0.33333  0.66667  0.49714  1
 Nb  Nb1  1  0.00000  0.00000  0.82108  1
 O  O1  1  0.99055  0.49528  0.32645  1
 O  O2  1  0.50472  0.49528  0.32645  1
 O  O3  1  0.50472  0.00945  0.32645  1
 O  O4  1  0.67435  0.83717  0.67384  1
 O  O5  1  0.16283  0.83717  0.67384  1
 O  O6  1  0.16283  0.32565  0.67384  1
 O  O7  1  0.83216  0.16784  0.00153  1
 O  O8  1  0.83216  0.66431  0.00153  1
 O  O9  1  0.33569  0.16784  0.00153  1
 Ta  Ta1  1  0.66667  0.33333  0.17743  1
