CIF file written using JARVIS-Tools package.
data_LiMn2B2O6
_symmetry_space_group_name_H-M  'P1'
_cell_length_a       5.68651
_cell_length_b       5.2755
_cell_length_c       7.84585
_cell_angle_alpha    89.5539
_cell_angle_beta     80.8656
_cell_angle_gamma    90.1023

_symmetry_Int_Tables_number  1
_chemical_formula_structural  LiMn2B2O6
_chemical_formula_sum  Li2Mn4B4O2
_cell_volume  232.3761012312013
_cell_formula_units_Z  2
loop_
  _symmetry_equiv_pos_site_id
 _symmetry_equiv_pos_as_xyz
 1  'x, y, z'
loop_
 _atom_site_type_symbol
 _atom_site_label
 _atom_site_symmetry_multiplicity
 _atom_site_fract_x
 _atom_site_fract_y
 _atom_site_fract_z
 _atom_site_fract_occupancy
 B  B1  1  0.15259  0.17475  0.09487  1
 B  B2  1  0.32111  0.32259  0.41946  1
 B  B3  1  0.67810  0.67620  0.58102  1
 B  B4  1  0.84831  0.82644  0.90464  1
 Li  Li1  1  0.04617  0.65607  0.25755  1
 Li  Li2  1  0.95374  0.34430  0.74267  1
 Mn  Mn1  1  0.19469  0.82278  0.55989  1
 Mn  Mn2  1  0.35048  0.70419  0.91827  1
 Mn  Mn3  1  0.65040  0.29617  0.08356  1
 Mn  Mn4  1  0.80448  0.17759  0.43758  1
 O  O1  1  0.95712  0.30721  0.18854  1
 O  O2  1  0.04450  0.69531  0.81123  1
 O  O3  1  0.13857  0.19701  0.52952  1
 O  O4  1  0.30821  0.57436  0.38588  1
 O  O5  1  0.16890  0.91754  0.10478  1
 O  O6  1  0.86081  0.80361  0.47171  1
 O  O7  1  0.33440  0.32337  0.00542  1
 O  O8  1  0.48840  0.81573  0.66764  1
 O  O9  1  0.69255  0.42435  0.61293  1
 O  O10  1  0.50900  0.18033  0.33320  1
 O  O11  1  0.66631  0.67661  0.99327  1
 O  O12  1  0.83116  0.08347  0.89636  1
