CIF file written using JARVIS-Tools package.
data_VPO5
_symmetry_space_group_name_H-M  'Pnma'
_cell_length_a       6.21067
_cell_length_b       6.99584
_cell_length_c       7.58835
_cell_angle_alpha    90
_cell_angle_beta     90
_cell_angle_gamma    90

_symmetry_Int_Tables_number  62
_chemical_formula_structural  VPO5
_chemical_formula_sum  V4P4O20
_cell_volume  329.7049222155915
_cell_formula_units_Z  4
loop_
  _symmetry_equiv_pos_site_id
 _symmetry_equiv_pos_as_xyz
 1  'x, y, z'
loop_
 _atom_site_type_symbol
 _atom_site_label
 _atom_site_symmetry_multiplicity
 _atom_site_fract_x
 _atom_site_fract_y
 _atom_site_fract_z
 _atom_site_fract_occupancy
 O  O1  1  0.25000  0.83815  0.36591  1
 O  O2  1  0.25000  0.49604  0.54960  1
 O  O3  1  0.55058  0.75729  0.62017  1
 O  O4  1  0.94942  0.75729  0.62017  1
 O  O5  1  0.75000  0.16185  0.63409  1
 O  O6  1  0.25000  0.00073  0.71279  1
 O  O7  1  0.44942  0.24271  0.37983  1
 O  O8  1  0.25000  0.66185  0.86591  1
 O  O9  1  0.05058  0.25729  0.87983  1
 O  O10  1  0.75000  0.50073  0.78721  1
 O  O11  1  0.75000  0.99604  0.95040  1
 O  O12  1  0.75000  0.50396  0.45040  1
 O  O13  1  0.25000  0.00396  0.04960  1
 O  O14  1  0.25000  0.49927  0.21279  1
 O  O15  1  0.75000  -0.00073  0.28721  1
 O  O16  1  0.05058  0.24271  0.37983  1
 O  O17  1  0.75000  0.33815  0.13409  1
 O  O18  1  0.94942  0.74271  0.12017  1
 O  O19  1  0.55058  0.74271  0.12017  1
 O  O20  1  0.44942  0.25729  0.87983  1
 P  P1  1  0.25000  0.37234  0.38196  1
 P  P2  1  0.75000  0.87234  0.11804  1
 P  P3  1  0.25000  0.12766  0.88196  1
 P  P4  1  0.75000  0.62766  0.61804  1
 V  V1  1  0.75000  0.25973  0.33384  1
 V  V2  1  0.25000  0.75973  0.16616  1
 V  V3  1  0.75000  0.24027  0.83384  1
 V  V4  1  0.25000  0.74027  0.66616  1
