CIF file written using JARVIS-Tools package.
data_Li2Fe3CoO8
_symmetry_space_group_name_H-M  'P6_3mc'
_cell_length_a       5.57104
_cell_length_b       5.57104
_cell_length_c       9.2043
_cell_angle_alpha    90
_cell_angle_beta     90
_cell_angle_gamma    120

_symmetry_Int_Tables_number  186
_chemical_formula_structural  Li2Fe3CoO8
_chemical_formula_sum  Li4Fe6Co2O6
_cell_volume  247.397077555092
_cell_formula_units_Z  2
loop_
  _symmetry_equiv_pos_site_id
 _symmetry_equiv_pos_as_xyz
 1  'x, y, z'
loop_
 _atom_site_type_symbol
 _atom_site_label
 _atom_site_symmetry_multiplicity
 _atom_site_fract_x
 _atom_site_fract_y
 _atom_site_fract_z
 _atom_site_fract_occupancy
 Co  Co1  1  0.66667  0.33333  0.98743  1
 Co  Co2  1  0.33333  0.66667  0.48743  1
 Fe  Fe1  1  0.65186  0.82593  0.21219  1
 Fe  Fe2  1  0.17407  0.82593  0.21219  1
 Fe  Fe3  1  0.82593  0.65186  0.71219  1
 Fe  Fe4  1  0.34814  0.17407  0.71219  1
 Fe  Fe5  1  0.82593  0.17407  0.71219  1
 Fe  Fe6  1  0.17407  0.34814  0.21219  1
 Li  Li1  1  0.33333  0.66667  0.89324  1
 Li  Li2  1  0.00000  0.00000  0.49602  1
 Li  Li3  1  0.00000  0.00000  0.99602  1
 Li  Li4  1  0.66667  0.33333  0.39324  1
 O  O1  1  0.16611  0.33223  0.60276  1
 O  O2  1  0.16611  0.83389  0.60276  1
 O  O3  1  0.96056  0.48028  0.84275  1
 O  O4  1  0.33333  0.66667  0.09724  1
 O  O5  1  0.00000  0.00000  0.30661  1
 O  O6  1  0.00000  0.00000  0.80661  1
 O  O7  1  0.03944  0.51972  0.34275  1
 O  O8  1  0.83389  0.66777  0.10276  1
 O  O9  1  0.66777  0.83389  0.60276  1
 O  O10  1  0.51972  0.48028  0.84275  1
 O  O11  1  0.51972  0.03944  0.84275  1
 O  O12  1  0.66667  0.33333  0.59724  1
 O  O13  1  0.48028  0.96056  0.34275  1
 O  O14  1  0.33223  0.16611  0.10276  1
 O  O15  1  0.48028  0.51972  0.34275  1
 O  O16  1  0.83389  0.16611  0.10276  1
