CIF file written using JARVIS-Tools package.
data_VF5
_symmetry_space_group_name_H-M  'P2_1/c'
_cell_length_a       8.04249
_cell_length_b       6.32609
_cell_length_c       8.81592
_cell_angle_alpha    43.1206
_cell_angle_beta     90
_cell_angle_gamma    90

_symmetry_Int_Tables_number  14
_chemical_formula_structural  VF5
_chemical_formula_sum  V4F20
_cell_volume  306.588826842042
_cell_formula_units_Z  4
loop_
  _symmetry_equiv_pos_site_id
 _symmetry_equiv_pos_as_xyz
 1  'x, y, z'
loop_
 _atom_site_type_symbol
 _atom_site_label
 _atom_site_symmetry_multiplicity
 _atom_site_fract_x
 _atom_site_fract_y
 _atom_site_fract_z
 _atom_site_fract_occupancy
 F  F1  1  0.10513  0.08639  0.54120  1
 F  F2  1  0.39487  0.08639  0.04120  1
 F  F3  1  0.86205  0.09262  0.04324  1
 F  F4  1  0.62127  0.28357  0.13527  1
 F  F5  1  0.37417  0.54126  0.23122  1
 F  F6  1  0.12639  0.26515  0.17726  1
 F  F7  1  0.87417  0.45874  0.26878  1
 F  F8  1  0.62639  0.73485  0.32274  1
 F  F9  1  0.13795  0.90738  0.95676  1
 F  F10  1  0.12127  0.71643  0.36473  1
 F  F11  1  0.89487  0.91361  0.45880  1
 F  F12  1  0.60513  0.91361  0.95880  1
 F  F13  1  0.63795  0.09262  0.54324  1
 F  F14  1  0.87873  0.28357  0.63527  1
 F  F15  1  0.37361  0.26515  0.67726  1
 F  F16  1  0.12583  0.54126  0.73122  1
 F  F17  1  0.87361  0.73485  0.82274  1
 F  F18  1  0.62583  0.45874  0.76878  1
 F  F19  1  0.37873  0.71643  0.86473  1
 F  F20  1  0.36205  0.90738  0.45676  1
 V  V1  1  0.35064  0.89050  0.94848  1
 V  V2  1  0.85064  0.10950  0.55152  1
 V  V3  1  0.14936  0.89050  0.44848  1
 V  V4  1  0.64936  0.10950  0.05152  1
