CIF file written using JARVIS-Tools package.
data_LiFeF5
_symmetry_space_group_name_H-M  'Pmma'
_cell_length_a       4.89928
_cell_length_b       7.37159
_cell_length_c       10.3077
_cell_angle_alpha    90
_cell_angle_beta     90
_cell_angle_gamma    90

_symmetry_Int_Tables_number  51
_chemical_formula_structural  LiFeF5
_chemical_formula_sum  Li4Fe4F20
_cell_volume  372.2679616560201
_cell_formula_units_Z  4
loop_
  _symmetry_equiv_pos_site_id
 _symmetry_equiv_pos_as_xyz
 1  'x, y, z'
loop_
 _atom_site_type_symbol
 _atom_site_label
 _atom_site_symmetry_multiplicity
 _atom_site_fract_x
 _atom_site_fract_y
 _atom_site_fract_z
 _atom_site_fract_occupancy
 F  F1  1  0.76081  0.06398  0.12759  1
 F  F2  1  0.23919  0.56398  0.12759  1
 F  F3  1  0.23919  0.56398  0.37241  1
 F  F4  1  0.23919  0.93602  0.62759  1
 F  F5  1  0.23919  0.93602  0.87241  1
 F  F6  1  0.23868  0.93578  0.12757  1
 F  F7  1  0.76081  0.43602  0.62759  1
 F  F8  1  0.23868  0.93578  0.37243  1
 F  F9  1  0.23868  0.56422  0.87243  1
 F  F10  1  0.23868  0.56422  0.62757  1
 F  F11  1  0.15659  0.24982  0.25000  1
 F  F12  1  0.76132  0.43578  0.12757  1
 F  F13  1  0.84341  0.74982  0.25000  1
 F  F14  1  0.76081  0.43602  0.87241  1
 F  F15  1  0.76132  0.43578  0.37243  1
 F  F16  1  0.76081  0.06398  0.37241  1
 F  F17  1  0.76132  0.06422  0.87243  1
 F  F18  1  0.76132  0.06422  0.62757  1
 F  F19  1  0.84341  0.75018  0.75000  1
 F  F20  1  0.15659  0.25018  0.75000  1
 Fe  Fe1  1  0.00025  0.00014  0.75000  1
 Fe  Fe2  1  0.00025  0.49986  0.25000  1
 Fe  Fe3  1  -0.00025  0.50014  0.75000  1
 Fe  Fe4  1  -0.00025  -0.00014  0.25000  1
 Li  Li1  1  0.29896  0.75000  0.50000  1
 Li  Li2  1  0.29896  0.75000  0.00000  1
 Li  Li3  1  0.70104  0.25000  0.50000  1
 Li  Li4  1  0.70104  0.25000  0.00000  1
