CIF file written using JARVIS-Tools package.
data_LiZnP
_symmetry_space_group_name_H-M  'Pm'
_cell_length_a       5.70296
_cell_length_b       3.82579
_cell_length_c       2.69821
_cell_angle_alpha    90
_cell_angle_beta     90
_cell_angle_gamma    89.9179

_symmetry_Int_Tables_number  6
_chemical_formula_structural  LiZnP
_chemical_formula_sum  LiZnP
_cell_volume  58.87036124179194
_cell_formula_units_Z  1
loop_
  _symmetry_equiv_pos_site_id
 _symmetry_equiv_pos_as_xyz
 1  'x, y, z'
loop_
 _atom_site_type_symbol
 _atom_site_label
 _atom_site_symmetry_multiplicity
 _atom_site_fract_x
 _atom_site_fract_y
 _atom_site_fract_z
 _atom_site_fract_occupancy
 Li  Li1  1  0.37622  -0.07804  0.00000  1
 P  P1  1  0.10074  0.42264  0.00000  1
 Zn  Zn1  1  -0.15987  -0.07673  0.00000  1
