CIF file written using JARVIS-Tools package.
data_AlSnF5
_symmetry_space_group_name_H-M  'Immm'
_cell_length_a       5.66574
_cell_length_b       5.66574
_cell_length_c       5.66574
_cell_angle_alpha    141.243
_cell_angle_beta     105.81
_cell_angle_gamma    87.0049

_symmetry_Int_Tables_number  71
_chemical_formula_structural  AlSnF5
_chemical_formula_sum  AlSnF5
_cell_volume  105.60304083090894
_cell_formula_units_Z  1
loop_
  _symmetry_equiv_pos_site_id
 _symmetry_equiv_pos_as_xyz
 1  'x, y, z'
loop_
 _atom_site_type_symbol
 _atom_site_label
 _atom_site_symmetry_multiplicity
 _atom_site_fract_x
 _atom_site_fract_y
 _atom_site_fract_z
 _atom_site_fract_occupancy
 Al  Al1  1  0.50000  0.50000  -0.00000  1
 F  F1  1  0.76927  0.50000  0.26927  1
 F  F2  1  0.23073  0.50000  0.73073  1
 F  F3  1  0.28270  0.28270  0.00000  1
 F  F4  1  0.71730  0.71730  -0.00000  1
 F  F5  1  0.50000  -0.00000  0.50000  1
 Sn  Sn1  1  0.00000  0.00000  0.00000  1
