CIF file written using JARVIS-Tools package.
data_USi2RuRh
_symmetry_space_group_name_H-M  'I-4m2'
_cell_length_a       5.70975
_cell_length_b       5.70975
_cell_length_c       5.70976
_cell_angle_alpha    137.884
_cell_angle_beta     137.884
_cell_angle_gamma    61.081

_symmetry_Int_Tables_number  119
_chemical_formula_structural  USi2RuRh
_chemical_formula_sum  USi2RuRh
_cell_volume  82.79448473188795
_cell_formula_units_Z  1
loop_
  _symmetry_equiv_pos_site_id
 _symmetry_equiv_pos_as_xyz
 1  'x, y, z'
loop_
 _atom_site_type_symbol
 _atom_site_label
 _atom_site_symmetry_multiplicity
 _atom_site_fract_x
 _atom_site_fract_y
 _atom_site_fract_z
 _atom_site_fract_occupancy
 Rh  Rh1  1  0.25000  0.75000  0.50000  1
 Ru  Ru1  1  0.75000  0.25000  0.50000  1
 Si  Si1  1  0.62216  0.62216  -0.00000  1
 Si  Si2  1  0.37784  0.37784  0.00000  1
 U  U1  1  0.00000  0.00000  0.00000  1
