CIF file written using JARVIS-Tools package.
data_BCN
_symmetry_space_group_name_H-M  'Pm'
_cell_length_a       6.47713
_cell_length_b       6.47713
_cell_length_c       4.7626
_cell_angle_alpha    90
_cell_angle_beta     90
_cell_angle_gamma    90

_symmetry_Int_Tables_number  6
_chemical_formula_structural  BCN
_chemical_formula_sum  BCN
_cell_volume  199.80614362139755
_cell_formula_units_Z  1
loop_
  _symmetry_equiv_pos_site_id
 _symmetry_equiv_pos_as_xyz
 1  'x, y, z'
loop_
 _atom_site_type_symbol
 _atom_site_label
 _atom_site_symmetry_multiplicity
 _atom_site_fract_x
 _atom_site_fract_y
 _atom_site_fract_z
 _atom_site_fract_occupancy
 B  B1  1  -0.02218  -0.04754  0.00000  1
 C  C1  1  0.20426  0.00133  0.00000  1
 N  N1  1  0.00153  0.21068  0.00000  1
