CIF file written using JARVIS-Tools package.
data_B2O
_symmetry_space_group_name_H-M  'P1'
_cell_length_a       4.55605
_cell_length_b       2.35734
_cell_length_c       4.73175
_cell_angle_alpha    61.2127
_cell_angle_beta     119.744
_cell_angle_gamma    73.9703

_symmetry_Int_Tables_number  1
_chemical_formula_structural  B2O
_chemical_formula_sum  B2O
_cell_volume  28.46625573763108
_cell_formula_units_Z  1
loop_
  _symmetry_equiv_pos_site_id
 _symmetry_equiv_pos_as_xyz
 1  'x, y, z'
loop_
 _atom_site_type_symbol
 _atom_site_label
 _atom_site_symmetry_multiplicity
 _atom_site_fract_x
 _atom_site_fract_y
 _atom_site_fract_z
 _atom_site_fract_occupancy
 B  B1  1  0.48952  0.64587  0.06568  1
 B  B2  1  -0.00892  0.80110  0.66292  1
 O  O1  1  0.06736  -0.00916  0.94177  1
