CIF file written using JARVIS-Tools package.
data_BaCdSe
_symmetry_space_group_name_H-M  'P4mm'
_cell_length_a       4.66705
_cell_length_b       4.66705
_cell_length_c       8.88624
_cell_angle_alpha    90
_cell_angle_beta     90
_cell_angle_gamma    90

_symmetry_Int_Tables_number  99
_chemical_formula_structural  BaCdSe
_chemical_formula_sum  BaCdSe
_cell_volume  193.55427337483954
_cell_formula_units_Z  1
loop_
  _symmetry_equiv_pos_site_id
 _symmetry_equiv_pos_as_xyz
 1  'x, y, z'
loop_
 _atom_site_type_symbol
 _atom_site_label
 _atom_site_symmetry_multiplicity
 _atom_site_fract_x
 _atom_site_fract_y
 _atom_site_fract_z
 _atom_site_fract_occupancy
 Ba  Ba1  1  0.00000  0.00000  0.31033  1
 Cd  Cd1  1  0.00000  0.00000  0.70631  1
 Se  Se1  1  0.00000  0.00000  -0.00591  1
