CIF file written using JARVIS-Tools package.
data_NaTi2BiO6
_symmetry_space_group_name_H-M  'P4mm'
_cell_length_a       5.41364
_cell_length_b       5.41364
_cell_length_c       4.30441
_cell_angle_alpha    90
_cell_angle_beta     90
_cell_angle_gamma    89.9898

_symmetry_Int_Tables_number  99
_chemical_formula_structural  NaTi2BiO6
_chemical_formula_sum  NaTi2BiO6
_cell_volume  126.15171297523077
_cell_formula_units_Z  1
loop_
  _symmetry_equiv_pos_site_id
 _symmetry_equiv_pos_as_xyz
 1  'x, y, z'
loop_
 _atom_site_type_symbol
 _atom_site_label
 _atom_site_symmetry_multiplicity
 _atom_site_fract_x
 _atom_site_fract_y
 _atom_site_fract_z
 _atom_site_fract_occupancy
 Bi  Bi1  1  0.50000  0.50000  0.60842  1
 Na  Na1  1  0.00000  0.00000  0.58109  1
 O  O1  1  0.50000  -0.00000  0.43688  1
 O  O2  1  0.00000  0.50000  0.43688  1
 O  O3  1  0.74326  0.74326  0.92548  1
 O  O4  1  0.25674  0.25674  0.92548  1
 O  O5  1  0.74316  0.25684  0.92558  1
 O  O6  1  0.25684  0.74316  0.92558  1
 Ti  Ti1  1  0.50000  -0.00000  0.02730  1
 Ti  Ti2  1  0.00000  0.50000  0.02730  1
