CIF file written using JARVIS-Tools package.
data_CaAlGa
_symmetry_space_group_name_H-M  'C2/m'
_cell_length_a       5.7562
_cell_length_b       5.7562
_cell_length_c       7.33544
_cell_angle_alpha    52.1876
_cell_angle_beta     52.1877
_cell_angle_gamma    45.9736

_symmetry_Int_Tables_number  12
_chemical_formula_structural  CaAlGa
_chemical_formula_sum  Ca2Al2Ga2
_cell_volume  130.36832520733233
_cell_formula_units_Z  2
loop_
  _symmetry_equiv_pos_site_id
 _symmetry_equiv_pos_as_xyz
 1  'x, y, z'
loop_
 _atom_site_type_symbol
 _atom_site_label
 _atom_site_symmetry_multiplicity
 _atom_site_fract_x
 _atom_site_fract_y
 _atom_site_fract_z
 _atom_site_fract_occupancy
 Al  Al1  1  0.16230  0.16230  0.40388  1
 Al  Al2  1  0.83770  0.83770  0.59612  1
 Ca  Ca1  1  0.55002  0.55002  0.19524  1
 Ca  Ca2  1  0.44998  0.44998  0.80476  1
 Ga  Ga1  1  0.83838  0.83838  0.21505  1
 Ga  Ga2  1  0.16162  0.16162  0.78495  1
