CIF file written using JARVIS-Tools package.
data_BePdSe
_symmetry_space_group_name_H-M  'Pmm2'
_cell_length_a       3.45897
_cell_length_b       5.32802
_cell_length_c       2.95118
_cell_angle_alpha    90
_cell_angle_beta     90
_cell_angle_gamma    89.9975

_symmetry_Int_Tables_number  25
_chemical_formula_structural  BePdSe
_chemical_formula_sum  BePdSe
_cell_volume  54.38849416360382
_cell_formula_units_Z  1
loop_
  _symmetry_equiv_pos_site_id
 _symmetry_equiv_pos_as_xyz
 1  'x, y, z'
loop_
 _atom_site_type_symbol
 _atom_site_label
 _atom_site_symmetry_multiplicity
 _atom_site_fract_x
 _atom_site_fract_y
 _atom_site_fract_z
 _atom_site_fract_occupancy
 Be  Be1  1  0.41377  0.09872  0.00000  1
 Pd  Pd1  1  -0.08620  -0.17217  0.00000  1
 Se  Se1  1  -0.08624  0.34548  0.00000  1
