CIF file written using JARVIS-Tools package.
data_BaCu4O4
_symmetry_space_group_name_H-M  'P4/nbm'
_cell_length_a       6.61162
_cell_length_b       6.61162
_cell_length_c       6.33852
_cell_angle_alpha    90
_cell_angle_beta     90
_cell_angle_gamma    90

_symmetry_Int_Tables_number  125
_chemical_formula_structural  BaCu4O4
_chemical_formula_sum  Ba2Cu8O8
_cell_volume  277.0786854319852
_cell_formula_units_Z  2
loop_
  _symmetry_equiv_pos_site_id
 _symmetry_equiv_pos_as_xyz
 1  'x, y, z'
loop_
 _atom_site_type_symbol
 _atom_site_label
 _atom_site_symmetry_multiplicity
 _atom_site_fract_x
 _atom_site_fract_y
 _atom_site_fract_z
 _atom_site_fract_occupancy
 Ba  Ba1  1  0.00000  0.00000  0.00000  1
 Ba  Ba2  1  0.50000  0.50000  0.00000  1
 Cu  Cu1  1  0.25000  0.25000  0.50000  1
 Cu  Cu2  1  0.25000  0.75000  0.50000  1
 Cu  Cu3  1  0.75000  0.75000  0.50000  1
 Cu  Cu4  1  0.75000  0.25000  0.50000  1
 Cu  Cu5  1  0.50000  0.00000  0.75450  1
 Cu  Cu6  1  0.50000  0.00000  0.24550  1
 Cu  Cu7  1  0.00000  0.50000  0.75450  1
 Cu  Cu8  1  0.00000  0.50000  0.24550  1
 O  O1  1  0.80679  0.69321  0.22852  1
 O  O2  1  0.19321  0.30679  0.22852  1
 O  O3  1  0.80679  0.30679  0.77148  1
 O  O4  1  0.69321  0.19321  0.22852  1
 O  O5  1  0.19321  0.69321  0.77148  1
 O  O6  1  0.30679  0.80679  0.22852  1
 O  O7  1  0.30679  0.19321  0.77148  1
 O  O8  1  0.69321  0.80679  0.77148  1
