CIF file written using JARVIS-Tools package.
data_C2Br
_symmetry_space_group_name_H-M  'Pm'
_cell_length_a       6.24885
_cell_length_b       3.2957
_cell_length_c       2.57927
_cell_angle_alpha    90
_cell_angle_beta     91.4651
_cell_angle_gamma    90

_symmetry_Int_Tables_number  6
_chemical_formula_structural  C2Br
_chemical_formula_sum  C2Br
_cell_volume  53.10093152701953
_cell_formula_units_Z  1
loop_
  _symmetry_equiv_pos_site_id
 _symmetry_equiv_pos_as_xyz
 1  'x, y, z'
loop_
 _atom_site_type_symbol
 _atom_site_label
 _atom_site_symmetry_multiplicity
 _atom_site_fract_x
 _atom_site_fract_y
 _atom_site_fract_z
 _atom_site_fract_occupancy
 Br  Br1  1  0.46676  0.00000  -0.16485  1
 C  C1  1  -0.03450  0.00000  0.03447  1
 C  C2  1  -0.03226  0.00000  0.53038  1
