CIF file written using JARVIS-Tools package.
data_CaHBr
_symmetry_space_group_name_H-M  'Pm'
_cell_length_a       5.56233
_cell_length_b       7.82541
_cell_length_c       4.7436
_cell_angle_alpha    90
_cell_angle_beta     90
_cell_angle_gamma    27.9896

_symmetry_Int_Tables_number  6
_chemical_formula_structural  CaHBr
_chemical_formula_sum  CaHBr
_cell_volume  96.90189438146908
_cell_formula_units_Z  1
loop_
  _symmetry_equiv_pos_site_id
 _symmetry_equiv_pos_as_xyz
 1  'x, y, z'
loop_
 _atom_site_type_symbol
 _atom_site_label
 _atom_site_symmetry_multiplicity
 _atom_site_fract_x
 _atom_site_fract_y
 _atom_site_fract_z
 _atom_site_fract_occupancy
 Br  Br1  1  0.11891  -0.27595  0.00000  1
 Ca  Ca1  1  0.24536  0.01539  0.00000  1
 H  H1  1  -0.04113  0.44500  0.00000  1
