CIF file written using JARVIS-Tools package.
data_RbCaBr3
_symmetry_space_group_name_H-M  'P4mm'
_cell_length_a       5.64765
_cell_length_b       5.64766
_cell_length_c       5.64759
_cell_angle_alpha    90
_cell_angle_beta     89.9978
_cell_angle_gamma    90

_symmetry_Int_Tables_number  99
_chemical_formula_structural  RbCaBr3
_chemical_formula_sum  RbCaBr3
_cell_volume  180.13542568550758
_cell_formula_units_Z  1
loop_
  _symmetry_equiv_pos_site_id
 _symmetry_equiv_pos_as_xyz
 1  'x, y, z'
loop_
 _atom_site_type_symbol
 _atom_site_label
 _atom_site_symmetry_multiplicity
 _atom_site_fract_x
 _atom_site_fract_y
 _atom_site_fract_z
 _atom_site_fract_occupancy
 Br  Br1  1  0.99998  0.00000  0.51247  1
 Br  Br2  1  0.49992  0.00000  0.01215  1
 Br  Br3  1  0.49994  0.50000  0.51247  1
 Ca  Ca1  1  0.49999  0.00000  0.51205  1
 Rb  Rb1  1  0.00018  0.50000  0.01086  1
