CIF file written using JARVIS-Tools package.
data_BBrN
_symmetry_space_group_name_H-M  'Pmmn'
_cell_length_a       2.6482
_cell_length_b       3.09493
_cell_length_c       10.6118
_cell_angle_alpha    90
_cell_angle_beta     90
_cell_angle_gamma    90

_symmetry_Int_Tables_number  59
_chemical_formula_structural  BBrN
_chemical_formula_sum  B2Br2N2
_cell_volume  86.97454958252932
_cell_formula_units_Z  2
loop_
  _symmetry_equiv_pos_site_id
 _symmetry_equiv_pos_as_xyz
 1  'x, y, z'
loop_
 _atom_site_type_symbol
 _atom_site_label
 _atom_site_symmetry_multiplicity
 _atom_site_fract_x
 _atom_site_fract_y
 _atom_site_fract_z
 _atom_site_fract_occupancy
 B  B1  1  0.50000  0.00000  0.01273  1
 B  B2  1  0.00000  0.50000  0.98727  1
 Br  Br1  1  0.50000  0.50000  0.65773  1
 Br  Br2  1  0.00000  0.00000  0.34227  1
 N  N1  1  0.50000  0.50000  0.06173  1
 N  N2  1  0.00000  0.00000  0.93827  1
