CIF file written using JARVIS-Tools package.
data_IBr3
_symmetry_space_group_name_H-M  'P1'
_cell_length_a       5.86068
_cell_length_b       6.75407
_cell_length_c       6.84999
_cell_angle_alpha    107.407
_cell_angle_beta     90.6711
_cell_angle_gamma    38.1026

_symmetry_Int_Tables_number  1
_chemical_formula_structural  IBr3
_chemical_formula_sum  IBr3
_cell_volume  147.68294153982075
_cell_formula_units_Z  1
loop_
  _symmetry_equiv_pos_site_id
 _symmetry_equiv_pos_as_xyz
 1  'x, y, z'
loop_
 _atom_site_type_symbol
 _atom_site_label
 _atom_site_symmetry_multiplicity
 _atom_site_fract_x
 _atom_site_fract_y
 _atom_site_fract_z
 _atom_site_fract_occupancy
 Br  Br1  1  0.74615  0.16444  0.93518  1
 Br  Br2  1  0.39237  0.69983  0.29227  1
 Br  Br3  1  0.92650  0.42812  0.72975  1
 I  I1  1  0.13865  0.55963  0.52851  1
