CIF file written using JARVIS-Tools package.
data_Cl
_symmetry_space_group_name_H-M  'P4/mmm'
_cell_length_a       4.67868
_cell_length_b       3.47387
_cell_length_c       3.47387
_cell_angle_alpha    90
_cell_angle_beta     90
_cell_angle_gamma    90

_symmetry_Int_Tables_number  123
_chemical_formula_structural  Cl
_chemical_formula_sum  Cl2
_cell_volume  56.46135061439004
_cell_formula_units_Z  2
loop_
  _symmetry_equiv_pos_site_id
 _symmetry_equiv_pos_as_xyz
 1  'x, y, z'
loop_
 _atom_site_type_symbol
 _atom_site_label
 _atom_site_symmetry_multiplicity
 _atom_site_fract_x
 _atom_site_fract_y
 _atom_site_fract_z
 _atom_site_fract_occupancy
 Cl  Cl1  1  -0.00932  0.00000  0.00000  1
 Cl  Cl2  1  0.52932  0.00000  0.00000  1
