CIF file written using JARVIS-Tools package.
data_PBr2
_symmetry_space_group_name_H-M  'Pmm2'
_cell_length_a       4.16332
_cell_length_b       3.41304
_cell_length_c       7.1837
_cell_angle_alpha    90
_cell_angle_beta     90
_cell_angle_gamma    90

_symmetry_Int_Tables_number  25
_chemical_formula_structural  PBr2
_chemical_formula_sum  PBr2
_cell_volume  102.07732711113437
_cell_formula_units_Z  1
loop_
  _symmetry_equiv_pos_site_id
 _symmetry_equiv_pos_as_xyz
 1  'x, y, z'
loop_
 _atom_site_type_symbol
 _atom_site_label
 _atom_site_symmetry_multiplicity
 _atom_site_fract_x
 _atom_site_fract_y
 _atom_site_fract_z
 _atom_site_fract_occupancy
 Br  Br1  1  0.02429  0.00000  0.75031  1
 Br  Br2  1  0.02429  0.00000  0.24969  1
 P  P1  1  0.35141  0.00000  0.00000  1
