CIF file written using JARVIS-Tools package.
data_NaSe2
_symmetry_space_group_name_H-M  'P2/m'
_cell_length_a       5.28044
_cell_length_b       3.46379
_cell_length_c       5.21645
_cell_angle_alpha    90
_cell_angle_beta     110.702
_cell_angle_gamma    90

_symmetry_Int_Tables_number  10
_chemical_formula_structural  NaSe2
_chemical_formula_sum  NaSe2
_cell_volume  89.24997682403311
_cell_formula_units_Z  1
loop_
  _symmetry_equiv_pos_site_id
 _symmetry_equiv_pos_as_xyz
 1  'x, y, z'
loop_
 _atom_site_type_symbol
 _atom_site_label
 _atom_site_symmetry_multiplicity
 _atom_site_fract_x
 _atom_site_fract_y
 _atom_site_fract_z
 _atom_site_fract_occupancy
 Na  Na1  1  0.07211  0.00000  0.41968  1
 Se  Se1  1  -0.16862  0.00000  -0.16156  1
 Se  Se2  1  0.31275  0.00000  0.00084  1
