CIF file written using JARVIS-Tools package.
data_CaSiN2
_symmetry_space_group_name_H-M  'R-3m'
_cell_length_a       5.57126
_cell_length_b       5.57126
_cell_length_c       5.57126
_cell_angle_alpha    31.1025
_cell_angle_beta     31.1025
_cell_angle_gamma    31.1026

_symmetry_Int_Tables_number  166
_chemical_formula_structural  CaSiN2
_chemical_formula_sum  CaSiN2
_cell_volume  40.942114848515445
_cell_formula_units_Z  1
loop_
  _symmetry_equiv_pos_site_id
 _symmetry_equiv_pos_as_xyz
 1  'x, y, z'
loop_
 _atom_site_type_symbol
 _atom_site_label
 _atom_site_symmetry_multiplicity
 _atom_site_fract_x
 _atom_site_fract_y
 _atom_site_fract_z
 _atom_site_fract_occupancy
 Ca  Ca1  1  0.00000  0.00000  0.00000  1
 N  N1  1  0.77028  0.77028  0.77028  1
 N  N2  1  0.22972  0.22972  0.22972  1
 Si  Si1  1  0.50000  0.50000  0.50000  1
