CIF file written using JARVIS-Tools package.
data_CdO
_symmetry_space_group_name_H-M  'P-1'
_cell_length_a       4.08875
_cell_length_b       6.20065
_cell_length_c       3.92499
_cell_angle_alpha    55.4888
_cell_angle_beta     52.4908
_cell_angle_gamma    72.4921

_symmetry_Int_Tables_number  2
_chemical_formula_structural  CdO
_chemical_formula_sum  Cd2O2
_cell_volume  64.89652818922927
_cell_formula_units_Z  2
loop_
  _symmetry_equiv_pos_site_id
 _symmetry_equiv_pos_as_xyz
 1  'x, y, z'
loop_
 _atom_site_type_symbol
 _atom_site_label
 _atom_site_symmetry_multiplicity
 _atom_site_fract_x
 _atom_site_fract_y
 _atom_site_fract_z
 _atom_site_fract_occupancy
 Cd  Cd1  1  0.15852  0.89507  -0.02416  1
 Cd  Cd2  1  0.84089  0.51397  0.00970  1
 O  O1  1  0.40176  0.24334  0.85867  1
 O  O2  1  0.59762  0.16571  0.12686  1
