CIF file written using JARVIS-Tools package.
data_Rb2TeAu
_symmetry_space_group_name_H-M  'I4/mmm'
_cell_length_a       5.65255
_cell_length_b       5.65255
_cell_length_c       6.51738
_cell_angle_alpha    125.242
_cell_angle_beta     125.242
_cell_angle_gamma    70.4086

_symmetry_Int_Tables_number  139
_chemical_formula_structural  Rb2TeAu
_chemical_formula_sum  Rb2TeAu
_cell_volume  138.9031807785021
_cell_formula_units_Z  1
loop_
  _symmetry_equiv_pos_site_id
 _symmetry_equiv_pos_as_xyz
 1  'x, y, z'
loop_
 _atom_site_type_symbol
 _atom_site_label
 _atom_site_symmetry_multiplicity
 _atom_site_fract_x
 _atom_site_fract_y
 _atom_site_fract_z
 _atom_site_fract_occupancy
 Au  Au1  1  0.50000  0.50000  0.50000  1
 Rb  Rb1  1  0.25000  0.25000  0.75000  1
 Rb  Rb2  1  0.75001  0.75001  0.25000  1
 Te  Te1  1  0.00000  0.00000  0.00000  1
