CIF file written using JARVIS-Tools package.
data_ClO
_symmetry_space_group_name_H-M  'I4/mmm'
_cell_length_a       3.04586
_cell_length_b       3.04586
_cell_length_c       6.50473
_cell_angle_alpha    90
_cell_angle_beta     90
_cell_angle_gamma    90

_symmetry_Int_Tables_number  139
_chemical_formula_structural  ClO
_chemical_formula_sum  Cl2O2
_cell_volume  60.34602501614986
_cell_formula_units_Z  2
loop_
  _symmetry_equiv_pos_site_id
 _symmetry_equiv_pos_as_xyz
 1  'x, y, z'
loop_
 _atom_site_type_symbol
 _atom_site_label
 _atom_site_symmetry_multiplicity
 _atom_site_fract_x
 _atom_site_fract_y
 _atom_site_fract_z
 _atom_site_fract_occupancy
 Cl  Cl1  1  0.00000  0.00000  0.25000  1
 Cl  Cl2  1  0.50000  0.50000  0.75000  1
 O  O1  1  0.00000  0.00000  0.74999  1
 O  O2  1  0.50000  0.50000  0.25001  1
