CIF file written using JARVIS-Tools package.
data_As2N
_symmetry_space_group_name_H-M  'Pmm2'
_cell_length_a       5.6906
_cell_length_b       2.91736
_cell_length_c       2.93662
_cell_angle_alpha    90
_cell_angle_beta     89.9973
_cell_angle_gamma    90

_symmetry_Int_Tables_number  25
_chemical_formula_structural  As2N
_chemical_formula_sum  As2N
_cell_volume  48.75231741823304
_cell_formula_units_Z  1
loop_
  _symmetry_equiv_pos_site_id
 _symmetry_equiv_pos_as_xyz
 1  'x, y, z'
loop_
 _atom_site_type_symbol
 _atom_site_label
 _atom_site_symmetry_multiplicity
 _atom_site_fract_x
 _atom_site_fract_y
 _atom_site_fract_z
 _atom_site_fract_occupancy
 As  As1  1  -0.48712  0.00000  -0.03329  1
 As  As2  1  0.04806  0.00000  0.46663  1
 N  N1  1  0.83906  0.00000  -0.03334  1
