CIF file written using JARVIS-Tools package.
data_H3Cl
_symmetry_space_group_name_H-M  'P1'
_cell_length_a       3.57954
_cell_length_b       4.83605
_cell_length_c       4.91579
_cell_angle_alpha    58.226
_cell_angle_beta     85.4652
_cell_angle_gamma    47.8208

_symmetry_Int_Tables_number  1
_chemical_formula_structural  H3Cl
_chemical_formula_sum  H3Cl
_cell_volume  48.25303046048092
_cell_formula_units_Z  1
loop_
  _symmetry_equiv_pos_site_id
 _symmetry_equiv_pos_as_xyz
 1  'x, y, z'
loop_
 _atom_site_type_symbol
 _atom_site_label
 _atom_site_symmetry_multiplicity
 _atom_site_fract_x
 _atom_site_fract_y
 _atom_site_fract_z
 _atom_site_fract_occupancy
 Cl  Cl1  1  0.10485  0.15812  0.50486  1
 H  H1  1  0.85812  0.19458  0.71282  1
 H  H2  1  0.43445  0.31369  0.95509  1
 H  H3  1  0.64758  0.04185  0.08041  1
