CIF file written using JARVIS-Tools package.
data_HIO
_symmetry_space_group_name_H-M  'Pm'
_cell_length_a       4.31046
_cell_length_b       4.58337
_cell_length_c       4.10211
_cell_angle_alpha    90
_cell_angle_beta     90
_cell_angle_gamma    119.712

_symmetry_Int_Tables_number  6
_chemical_formula_structural  HIO
_chemical_formula_sum  HIO
_cell_volume  70.38859732127845
_cell_formula_units_Z  1
loop_
  _symmetry_equiv_pos_site_id
 _symmetry_equiv_pos_as_xyz
 1  'x, y, z'
loop_
 _atom_site_type_symbol
 _atom_site_label
 _atom_site_symmetry_multiplicity
 _atom_site_fract_x
 _atom_site_fract_y
 _atom_site_fract_z
 _atom_site_fract_occupancy
 H  H1  1  0.39354  -0.07491  0.00000  1
 I  I1  1  0.06120  0.25526  0.00000  1
 O  O1  1  0.54526  0.81964  0.00000  1
