CIF file written using JARVIS-Tools package.
data_H2S
_symmetry_space_group_name_H-M  'P2/m'
_cell_length_a       3.78848
_cell_length_b       2.3817
_cell_length_c       4.49356
_cell_angle_alpha    57.9538
_cell_angle_beta     72.8623
_cell_angle_gamma    90.0053

_symmetry_Int_Tables_number  10
_chemical_formula_structural  H2S
_chemical_formula_sum  H2S
_cell_volume  32.222705513336905
_cell_formula_units_Z  1
loop_
  _symmetry_equiv_pos_site_id
 _symmetry_equiv_pos_as_xyz
 1  'x, y, z'
loop_
 _atom_site_type_symbol
 _atom_site_label
 _atom_site_symmetry_multiplicity
 _atom_site_fract_x
 _atom_site_fract_y
 _atom_site_fract_z
 _atom_site_fract_occupancy
 H  H1  1  0.58612  0.77348  0.48088  1
 H  H2  1  0.37777  0.56565  0.68903  1
 S  S1  1  0.98193  0.16962  0.08489  1
