CIF file written using JARVIS-Tools package.
data_HfO2
_symmetry_space_group_name_H-M  'Pmm2'
_cell_length_a       4.04029
_cell_length_b       3.31964
_cell_length_c       3.72698
_cell_angle_alpha    90
_cell_angle_beta     90.0078
_cell_angle_gamma    90

_symmetry_Int_Tables_number  25
_chemical_formula_structural  HfO2
_chemical_formula_sum  HfO2
_cell_volume  49.98752434098448
_cell_formula_units_Z  1
loop_
  _symmetry_equiv_pos_site_id
 _symmetry_equiv_pos_as_xyz
 1  'x, y, z'
loop_
 _atom_site_type_symbol
 _atom_site_label
 _atom_site_symmetry_multiplicity
 _atom_site_fract_x
 _atom_site_fract_y
 _atom_site_fract_z
 _atom_site_fract_occupancy
 Hf  Hf1  1  0.59040  0.00000  -0.03336  1
 O  O1  1  -0.30363  0.00000  -0.53335  1
 O  O2  1  0.11323  0.00000  -0.03329  1
