CIF file written using JARVIS-Tools package.
data_InIO
_symmetry_space_group_name_H-M  'Pmmn'
_cell_length_a       3.85629
_cell_length_b       4.0813
_cell_length_c       9.3446
_cell_angle_alpha    90
_cell_angle_beta     90
_cell_angle_gamma    90

_symmetry_Int_Tables_number  59
_chemical_formula_structural  InIO
_chemical_formula_sum  In2I2O2
_cell_volume  147.07153822401318
_cell_formula_units_Z  2
loop_
  _symmetry_equiv_pos_site_id
 _symmetry_equiv_pos_as_xyz
 1  'x, y, z'
loop_
 _atom_site_type_symbol
 _atom_site_label
 _atom_site_symmetry_multiplicity
 _atom_site_fract_x
 _atom_site_fract_y
 _atom_site_fract_z
 _atom_site_fract_occupancy
 I  I1  1  0.00000  0.50000  0.66128  1
 I  I2  1  0.50000  0.00000  0.33872  1
 In  In1  1  0.50000  0.50000  0.89347  1
 In  In2  1  0.00000  0.00000  0.10653  1
 O  O1  1  0.00000  0.50000  0.02854  1
 O  O2  1  0.50000  0.00000  0.97146  1
