CIF file written using JARVIS-Tools package.
data_BaBO2
_symmetry_space_group_name_H-M  'P4mm'
_cell_length_a       3.64622
_cell_length_b       3.64622
_cell_length_c       5.03974
_cell_angle_alpha    90
_cell_angle_beta     90
_cell_angle_gamma    90

_symmetry_Int_Tables_number  99
_chemical_formula_structural  BaBO2
_chemical_formula_sum  BaBO2
_cell_volume  67.0030706155726
_cell_formula_units_Z  1
loop_
  _symmetry_equiv_pos_site_id
 _symmetry_equiv_pos_as_xyz
 1  'x, y, z'
loop_
 _atom_site_type_symbol
 _atom_site_label
 _atom_site_symmetry_multiplicity
 _atom_site_fract_x
 _atom_site_fract_y
 _atom_site_fract_z
 _atom_site_fract_occupancy
 B  B1  1  0.00000  0.00000  0.08802  1
 Ba  Ba1  1  0.50000  0.50000  0.54620  1
 O  O1  1  0.00000  0.00000  0.34453  1
 O  O2  1  0.50000  0.50000  0.03124  1
