CIF file written using JARVIS-Tools package.
data_KSe
_symmetry_space_group_name_H-M  'P-1'
_cell_length_a       4.57461
_cell_length_b       4.90552
_cell_length_c       6.30469
_cell_angle_alpha    74.7203
_cell_angle_beta     69.7638
_cell_angle_gamma    90.1358

_symmetry_Int_Tables_number  2
_chemical_formula_structural  KSe
_chemical_formula_sum  K2Se2
_cell_volume  127.37171271878533
_cell_formula_units_Z  2
loop_
  _symmetry_equiv_pos_site_id
 _symmetry_equiv_pos_as_xyz
 1  'x, y, z'
loop_
 _atom_site_type_symbol
 _atom_site_label
 _atom_site_symmetry_multiplicity
 _atom_site_fract_x
 _atom_site_fract_y
 _atom_site_fract_z
 _atom_site_fract_occupancy
 K  K1  1  -0.05138  0.11577  -0.13277  1
 K  K2  1  0.70601  0.61259  0.36560  1
 Se  Se1  1  0.41510  0.56343  0.93518  1
 Se  Se2  1  0.23950  0.16480  0.29778  1
