CIF file written using JARVIS-Tools package.
data_KSe2
_symmetry_space_group_name_H-M  'P2/m'
_cell_length_a       4.08603
_cell_length_b       5.00266
_cell_length_c       4.71224
_cell_angle_alpha    69.2166
_cell_angle_beta     89.5991
_cell_angle_gamma    89.9163

_symmetry_Int_Tables_number  10
_chemical_formula_structural  KSe2
_chemical_formula_sum  KSe2
_cell_volume  90.05261043638367
_cell_formula_units_Z  1
loop_
  _symmetry_equiv_pos_site_id
 _symmetry_equiv_pos_as_xyz
 1  'x, y, z'
loop_
 _atom_site_type_symbol
 _atom_site_label
 _atom_site_symmetry_multiplicity
 _atom_site_fract_x
 _atom_site_fract_y
 _atom_site_fract_z
 _atom_site_fract_occupancy
 K  K1  1  0.00272  0.94403  0.16143  1
 Se  Se1  1  0.50154  0.34378  0.44739  1
 Se  Se2  1  0.50391  0.54400  0.87571  1
