CIF file written using JARVIS-Tools package.
data_BH2
_symmetry_space_group_name_H-M  'Pmmm'
_cell_length_a       5.42653
_cell_length_b       2.31483
_cell_length_c       1.71304
_cell_angle_alpha    90
_cell_angle_beta     90
_cell_angle_gamma    90

_symmetry_Int_Tables_number  47
_chemical_formula_structural  BH2
_chemical_formula_sum  BH2
_cell_volume  21.518347140192724
_cell_formula_units_Z  1
loop_
  _symmetry_equiv_pos_site_id
 _symmetry_equiv_pos_as_xyz
 1  'x, y, z'
loop_
 _atom_site_type_symbol
 _atom_site_label
 _atom_site_symmetry_multiplicity
 _atom_site_fract_x
 _atom_site_fract_y
 _atom_site_fract_z
 _atom_site_fract_occupancy
 B  B1  1  0.46660  0.00000  0.00000  1
 H  H1  1  -0.03330  0.00000  0.78472  1
 H  H2  1  -0.03330  0.00000  0.21527  1
