CIF file written using JARVIS-Tools package.
data_BaBrCl
_symmetry_space_group_name_H-M  'Pmmm'
_cell_length_a       6.23899
_cell_length_b       5.92204
_cell_length_c       5.90999
_cell_angle_alpha    90
_cell_angle_beta     90
_cell_angle_gamma    89.9775

_symmetry_Int_Tables_number  47
_chemical_formula_structural  BaBrCl
_chemical_formula_sum  BaBrCl
_cell_volume  218.35947386544188
_cell_formula_units_Z  1
loop_
  _symmetry_equiv_pos_site_id
 _symmetry_equiv_pos_as_xyz
 1  'x, y, z'
loop_
 _atom_site_type_symbol
 _atom_site_label
 _atom_site_symmetry_multiplicity
 _atom_site_fract_x
 _atom_site_fract_y
 _atom_site_fract_z
 _atom_site_fract_occupancy
 Ba  Ba1  1  -0.04762  -0.05421  0.00000  1
 Br  Br1  1  0.45238  -0.05444  0.00000  1
 Cl  Cl1  1  -0.04766  0.44581  0.00000  1
