CIF file written using JARVIS-Tools package.
data_BaC2
_symmetry_space_group_name_H-M  'P2/m'
_cell_length_a       4.90381
_cell_length_b       4.1618
_cell_length_c       4.06685
_cell_angle_alpha    90
_cell_angle_beta     97.3129
_cell_angle_gamma    90

_symmetry_Int_Tables_number  10
_chemical_formula_structural  BaC2
_chemical_formula_sum  BaC2
_cell_volume  82.32380135048098
_cell_formula_units_Z  1
loop_
  _symmetry_equiv_pos_site_id
 _symmetry_equiv_pos_as_xyz
 1  'x, y, z'
loop_
 _atom_site_type_symbol
 _atom_site_label
 _atom_site_symmetry_multiplicity
 _atom_site_fract_x
 _atom_site_fract_y
 _atom_site_fract_z
 _atom_site_fract_occupancy
 Ba  Ba1  1  0.46666  0.00000  -0.19999  1
 C  C1  1  -0.14689  0.00000  -0.64398  1
 C  C2  1  0.08023  0.00000  0.24397  1
