CIF file written using JARVIS-Tools package.
data_BaC2
_symmetry_space_group_name_H-M  'Pmmm'
_cell_length_a       4.41115
_cell_length_b       4.45779
_cell_length_c       4.56502
_cell_angle_alpha    90
_cell_angle_beta     90
_cell_angle_gamma    90

_symmetry_Int_Tables_number  47
_chemical_formula_structural  BaC2
_chemical_formula_sum  BaC2
_cell_volume  89.76625883159691
_cell_formula_units_Z  1
loop_
  _symmetry_equiv_pos_site_id
 _symmetry_equiv_pos_as_xyz
 1  'x, y, z'
loop_
 _atom_site_type_symbol
 _atom_site_label
 _atom_site_symmetry_multiplicity
 _atom_site_fract_x
 _atom_site_fract_y
 _atom_site_fract_z
 _atom_site_fract_occupancy
 Ba  Ba1  1  0.46664  0.00000  0.00000  1
 C  C1  1  -0.03332  0.00000  0.63783  1
 C  C2  1  -0.03332  0.00000  0.36217  1
