CIF file written using JARVIS-Tools package.
data_BaSe
_symmetry_space_group_name_H-M  'Fm-3m'
_cell_length_a       4.69624
_cell_length_b       4.69626
_cell_length_c       4.69625
_cell_angle_alpha    119.908
_cell_angle_beta     119.907
_cell_angle_gamma    60.0918

_symmetry_Int_Tables_number  225
_chemical_formula_structural  BaSe
_chemical_formula_sum  BaSe
_cell_volume  73.39136277385839
_cell_formula_units_Z  1
loop_
  _symmetry_equiv_pos_site_id
 _symmetry_equiv_pos_as_xyz
 1  'x, y, z'
loop_
 _atom_site_type_symbol
 _atom_site_label
 _atom_site_symmetry_multiplicity
 _atom_site_fract_x
 _atom_site_fract_y
 _atom_site_fract_z
 _atom_site_fract_occupancy
 Ba  Ba1  1  0.92171  0.74582  0.04740  1
 Se  Se1  1  0.42173  0.24586  0.54737  1
