CIF file written using JARVIS-Tools package.
data_AgB2
_symmetry_space_group_name_H-M  'Pmmm'
_cell_length_a       4.38488
_cell_length_b       2.90391
_cell_length_c       3.15599
_cell_angle_alpha    90
_cell_angle_beta     89.996
_cell_angle_gamma    90

_symmetry_Int_Tables_number  47
_chemical_formula_structural  AgB2
_chemical_formula_sum  AgB2
_cell_volume  40.186194865228174
_cell_formula_units_Z  1
loop_
  _symmetry_equiv_pos_site_id
 _symmetry_equiv_pos_as_xyz
 1  'x, y, z'
loop_
 _atom_site_type_symbol
 _atom_site_label
 _atom_site_symmetry_multiplicity
 _atom_site_fract_x
 _atom_site_fract_y
 _atom_site_fract_z
 _atom_site_fract_occupancy
 Ag  Ag1  1  0.46668  0.00000  0.13328  1
 B  B1  1  -0.03332  0.00000  -0.11588  1
 B  B2  1  -0.03336  0.00000  0.38260  1
