CIF file written using JARVIS-Tools package.
data_ScNCl4
_symmetry_space_group_name_H-M  'I4/m'
_cell_length_a       5.97124
_cell_length_b       5.97124
_cell_length_c       5.97124
_cell_angle_alpha    97.782
_cell_angle_beta     97.782
_cell_angle_gamma    136.819

_symmetry_Int_Tables_number  87
_chemical_formula_structural  ScNCl4
_chemical_formula_sum  ScNCl4
_cell_volume  135.47293897874772
_cell_formula_units_Z  1
loop_
  _symmetry_equiv_pos_site_id
 _symmetry_equiv_pos_as_xyz
 1  'x, y, z'
loop_
 _atom_site_type_symbol
 _atom_site_label
 _atom_site_symmetry_multiplicity
 _atom_site_fract_x
 _atom_site_fract_y
 _atom_site_fract_z
 _atom_site_fract_occupancy
 Cl  Cl1  1  0.23724  0.05083  0.40299  1
 Cl  Cl2  1  0.83425  0.23724  0.18641  1
 Cl  Cl3  1  0.05083  0.64784  0.81359  1
 Cl  Cl4  1  0.64784  0.83425  0.59701  1
 N  N1  1  0.44248  0.44248  0.00000  1
 Sc  Sc1  1  -0.05753  -0.05753  -0.00000  1
