CIF file written using JARVIS-Tools package.
data_SmCo4B4
_symmetry_space_group_name_H-M  'P4_2/n'
_cell_length_a       7.0268
_cell_length_b       7.0268
_cell_length_c       3.79689
_cell_angle_alpha    90
_cell_angle_beta     90
_cell_angle_gamma    90

_symmetry_Int_Tables_number  86
_chemical_formula_structural  SmCo4B4
_chemical_formula_sum  Sm2Co8B8
_cell_volume  187.47512165080963
_cell_formula_units_Z  2
loop_
  _symmetry_equiv_pos_site_id
 _symmetry_equiv_pos_as_xyz
 1  'x, y, z'
loop_
 _atom_site_type_symbol
 _atom_site_label
 _atom_site_symmetry_multiplicity
 _atom_site_fract_x
 _atom_site_fract_y
 _atom_site_fract_z
 _atom_site_fract_occupancy
 B  B1  1  0.33793  0.79599  0.89518  1
 B  B2  1  0.70401  0.83793  0.39518  1
 B  B3  1  0.16207  0.70401  0.60482  1
 B  B4  1  0.83793  0.29599  0.60482  1
 B  B5  1  0.20401  0.33793  0.10482  1
 B  B6  1  0.79599  0.66207  0.10482  1
 B  B7  1  0.66207  0.20401  0.89518  1
 B  B8  1  0.29599  0.16207  0.39518  1
 Co  Co1  1  0.64313  0.11556  0.39190  1
 Co  Co2  1  0.38444  0.14313  0.89190  1
 Co  Co3  1  0.35687  0.88444  0.39190  1
 Co  Co4  1  0.14313  0.61556  0.10810  1
 Co  Co5  1  0.11556  0.35687  0.60810  1
 Co  Co6  1  0.88444  0.64313  0.60810  1
 Co  Co7  1  0.85687  0.38444  0.10810  1
 Co  Co8  1  0.61556  0.85687  0.89190  1
 Sm  Sm1  1  0.50000  0.50000  0.50000  1
 Sm  Sm2  1  0.00000  0.00000  0.00000  1
