CIF file written using JARVIS-Tools package.
data_K2NaNbO2F4
_symmetry_space_group_name_H-M  'P4_2/mnm'
_cell_length_a       6.02519
_cell_length_b       6.02519
_cell_length_c       8.51796
_cell_angle_alpha    90
_cell_angle_beta     90
_cell_angle_gamma    90

_symmetry_Int_Tables_number  136
_chemical_formula_structural  K2NaNbO2F4
_chemical_formula_sum  K4Na2Nb2O4F8
_cell_volume  309.2266976307769
_cell_formula_units_Z  2
loop_
  _symmetry_equiv_pos_site_id
 _symmetry_equiv_pos_as_xyz
 1  'x, y, z'
loop_
 _atom_site_type_symbol
 _atom_site_label
 _atom_site_symmetry_multiplicity
 _atom_site_fract_x
 _atom_site_fract_y
 _atom_site_fract_z
 _atom_site_fract_occupancy
 F  F1  1  0.26148  0.73852  0.50000  1
 F  F2  1  0.50000  0.50000  0.26126  1
 F  F3  1  0.50000  0.50000  0.73874  1
 F  F4  1  0.23852  0.23852  0.00000  1
 F  F5  1  0.00000  0.00000  0.76126  1
 F  F6  1  0.00000  0.00000  0.23874  1
 F  F7  1  0.73852  0.26148  0.50000  1
 F  F8  1  0.76148  0.76148  0.00000  1
 K  K1  1  0.00000  0.50000  0.75000  1
 K  K2  1  0.00000  0.50000  0.25000  1
 K  K3  1  0.50000  0.00000  0.25000  1
 K  K4  1  0.50000  0.00000  0.75000  1
 Na  Na1  1  0.00000  0.00000  0.50000  1
 Na  Na2  1  0.50000  0.50000  0.00000  1
 Nb  Nb1  1  0.50000  0.50000  0.50000  1
 Nb  Nb2  1  0.00000  0.00000  0.00000  1
 O  O1  1  0.27682  0.27682  0.50000  1
 O  O2  1  0.22318  0.77682  0.00000  1
 O  O3  1  0.77682  0.22318  0.00000  1
 O  O4  1  0.72318  0.72318  0.50000  1
