CIF file written using JARVIS-Tools package.
data_Li2Mn3F8
_symmetry_space_group_name_H-M  'P-1'
_cell_length_a       5.32647
_cell_length_b       5.84927
_cell_length_c       5.96066
_cell_angle_alpha    108.035
_cell_angle_beta     89.9027
_cell_angle_gamma    118.245

_symmetry_Int_Tables_number  2
_chemical_formula_structural  Li2Mn3F8
_chemical_formula_sum  Li2Mn3F8
_cell_volume  153.21726717179888
_cell_formula_units_Z  1
loop_
  _symmetry_equiv_pos_site_id
 _symmetry_equiv_pos_as_xyz
 1  'x, y, z'
loop_
 _atom_site_type_symbol
 _atom_site_label
 _atom_site_symmetry_multiplicity
 _atom_site_fract_x
 _atom_site_fract_y
 _atom_site_fract_z
 _atom_site_fract_occupancy
 F  F1  1  0.21972  0.76733  0.95313  1
 F  F2  1  0.22392  0.74356  0.46554  1
 F  F3  1  0.31293  0.24764  0.32379  1
 F  F4  1  0.29031  0.23313  0.81729  1
 F  F5  1  0.70969  0.76687  0.18271  1
 F  F6  1  0.68707  0.75236  0.67621  1
 F  F7  1  0.77608  0.25644  0.53446  1
 F  F8  1  0.78028  0.23267  0.04687  1
 Li  Li1  1  0.45991  0.91197  0.25718  1
 Li  Li2  1  0.54009  0.08803  0.74282  1
 Mn  Mn1  1  0.00000  0.00000  0.00000  1
 Mn  Mn2  1  0.22797  0.46680  0.65339  1
 Mn  Mn3  1  0.77203  0.53320  0.34661  1
