CIF file written using JARVIS-Tools package.
data_NaInF
_symmetry_space_group_name_H-M  'Pm'
_cell_length_a       3.52296
_cell_length_b       7.05396
_cell_length_c       3.25275
_cell_angle_alpha    90
_cell_angle_beta     90
_cell_angle_gamma    60.9676

_symmetry_Int_Tables_number  6
_chemical_formula_structural  NaInF
_chemical_formula_sum  NaInF
_cell_volume  70.67653102186308
_cell_formula_units_Z  1
loop_
  _symmetry_equiv_pos_site_id
 _symmetry_equiv_pos_as_xyz
 1  'x, y, z'
loop_
 _atom_site_type_symbol
 _atom_site_label
 _atom_site_symmetry_multiplicity
 _atom_site_fract_x
 _atom_site_fract_y
 _atom_site_fract_z
 _atom_site_fract_occupancy
 F  F1  1  0.33100  0.05726  0.00000  1
 In  In1  1  -0.04020  0.42431  0.00000  1
 Na  Na1  1  0.01572  -0.13242  0.00000  1
