CIF file written using JARVIS-Tools package.
data_CaBr
_symmetry_space_group_name_H-M  'P4/nmm'
_cell_length_a       3.76456
_cell_length_b       3.76456
_cell_length_c       8.77587
_cell_angle_alpha    90
_cell_angle_beta     90
_cell_angle_gamma    90

_symmetry_Int_Tables_number  129
_chemical_formula_structural  CaBr
_chemical_formula_sum  Ca2Br2
_cell_volume  124.3709920243448
_cell_formula_units_Z  2
loop_
  _symmetry_equiv_pos_site_id
 _symmetry_equiv_pos_as_xyz
 1  'x, y, z'
loop_
 _atom_site_type_symbol
 _atom_site_label
 _atom_site_symmetry_multiplicity
 _atom_site_fract_x
 _atom_site_fract_y
 _atom_site_fract_z
 _atom_site_fract_occupancy
 Br  Br1  1  0.00000  0.00000  0.66061  1
 Br  Br2  1  0.50000  0.50000  0.33939  1
 Ca  Ca1  1  0.00000  0.00000  0.17555  1
 Ca  Ca2  1  0.50000  0.50000  0.82445  1
