CIF file written using JARVIS-Tools package.
data_GaTeCl
_symmetry_space_group_name_H-M  'P4/nmm'
_cell_length_a       4.44809
_cell_length_b       4.44809
_cell_length_c       9.51397
_cell_angle_alpha    90
_cell_angle_beta     90
_cell_angle_gamma    90

_symmetry_Int_Tables_number  129
_chemical_formula_structural  GaTeCl
_chemical_formula_sum  Ga2Te2Cl2
_cell_volume  188.23852250701822
_cell_formula_units_Z  2
loop_
  _symmetry_equiv_pos_site_id
 _symmetry_equiv_pos_as_xyz
 1  'x, y, z'
loop_
 _atom_site_type_symbol
 _atom_site_label
 _atom_site_symmetry_multiplicity
 _atom_site_fract_x
 _atom_site_fract_y
 _atom_site_fract_z
 _atom_site_fract_occupancy
 Cl  Cl1  1  0.00000  0.00000  0.00000  1
 Cl  Cl2  1  0.50000  0.50000  0.00000  1
 Ga  Ga1  1  0.00000  0.50000  0.83468  1
 Ga  Ga2  1  0.50000  0.00000  0.16532  1
 Te  Te1  1  0.00000  0.50000  0.46223  1
 Te  Te2  1  0.50000  0.00000  0.53777  1
