CIF file written using JARVIS-Tools package.
data_GaTeCl
_symmetry_space_group_name_H-M  'C2/m'
_cell_length_a       7.42951
_cell_length_b       7.42951
_cell_length_c       6.64087
_cell_angle_alpha    112.685
_cell_angle_beta     112.685
_cell_angle_gamma    32.4338

_symmetry_Int_Tables_number  12
_chemical_formula_structural  GaTeCl
_chemical_formula_sum  Ga2Te2Cl2
_cell_volume  180.0401144659948
_cell_formula_units_Z  2
loop_
  _symmetry_equiv_pos_site_id
 _symmetry_equiv_pos_as_xyz
 1  'x, y, z'
loop_
 _atom_site_type_symbol
 _atom_site_label
 _atom_site_symmetry_multiplicity
 _atom_site_fract_x
 _atom_site_fract_y
 _atom_site_fract_z
 _atom_site_fract_occupancy
 Cl  Cl1  1  0.37255  0.37255  0.14130  1
 Cl  Cl2  1  0.62745  0.62745  0.85870  1
 Ga  Ga1  1  0.31865  0.31865  0.40910  1
 Ga  Ga2  1  0.68135  0.68135  0.59090  1
 Te  Te1  1  0.88434  0.88434  0.68844  1
 Te  Te2  1  0.11566  0.11566  0.31156  1
