CIF file written using JARVIS-Tools package.
data_NbSeBr
_symmetry_space_group_name_H-M  'F-43m'
_cell_length_a       7.42128
_cell_length_b       7.42129
_cell_length_c       7.42129
_cell_angle_alpha    60
_cell_angle_beta     60
_cell_angle_gamma    60

_symmetry_Int_Tables_number  216
_chemical_formula_structural  NbSeBr
_chemical_formula_sum  Nb4Se4Br4
_cell_volume  289.01660270876135
_cell_formula_units_Z  4
loop_
  _symmetry_equiv_pos_site_id
 _symmetry_equiv_pos_as_xyz
 1  'x, y, z'
loop_
 _atom_site_type_symbol
 _atom_site_label
 _atom_site_symmetry_multiplicity
 _atom_site_fract_x
 _atom_site_fract_y
 _atom_site_fract_z
 _atom_site_fract_occupancy
 Br  Br1  1  0.62068  0.62068  0.62068  1
 Br  Br2  1  0.62068  0.62068  0.13796  1
 Br  Br3  1  0.62068  0.13796  0.62068  1
 Br  Br4  1  0.13796  0.62068  0.62068  1
 Nb  Nb1  1  0.35220  0.35220  0.35220  1
 Nb  Nb2  1  0.35220  0.35220  0.94341  1
 Nb  Nb3  1  0.35220  0.94341  0.35220  1
 Nb  Nb4  1  0.94341  0.35220  0.35220  1
 Se  Se1  1  0.11413  0.11413  0.11413  1
 Se  Se2  1  0.11413  0.11413  0.65762  1
 Se  Se3  1  0.11413  0.65762  0.11413  1
 Se  Se4  1  0.65762  0.11413  0.11413  1
