CIF file written using JARVIS-Tools package.
data_InGeCl3
_symmetry_space_group_name_H-M  'R3m'
_cell_length_a       5.29964
_cell_length_b       5.30007
_cell_length_c       5.30089
_cell_angle_alpha    87.1665
_cell_angle_beta     87.1788
_cell_angle_gamma    87.2233

_symmetry_Int_Tables_number  160
_chemical_formula_structural  InGeCl3
_chemical_formula_sum  InGeCl3
_cell_volume  148.3733226807582
_cell_formula_units_Z  1
loop_
  _symmetry_equiv_pos_site_id
 _symmetry_equiv_pos_as_xyz
 1  'x, y, z'
loop_
 _atom_site_type_symbol
 _atom_site_label
 _atom_site_symmetry_multiplicity
 _atom_site_fract_x
 _atom_site_fract_y
 _atom_site_fract_z
 _atom_site_fract_occupancy
 Cl  Cl1  1  0.02738  0.52049  0.51072  1
 Cl  Cl2  1  0.52250  0.52055  0.01562  1
 Cl  Cl3  1  0.52245  0.02547  0.51073  1
 Ge  Ge1  1  0.49253  0.49049  0.48052  1
 In  In1  1  0.93514  0.93300  0.92241  1
