CIF file written using JARVIS-Tools package.
data_TlGeCl3
_symmetry_space_group_name_H-M  'Cm'
_cell_length_a       5.26687
_cell_length_b       5.2672
_cell_length_c       5.26947
_cell_angle_alpha    87.727
_cell_angle_beta     87.7398
_cell_angle_gamma    87.8969

_symmetry_Int_Tables_number  8
_chemical_formula_structural  TlGeCl3
_chemical_formula_sum  TlGeCl3
_cell_volume  145.86497829266267
_cell_formula_units_Z  1
loop_
  _symmetry_equiv_pos_site_id
 _symmetry_equiv_pos_as_xyz
 1  'x, y, z'
loop_
 _atom_site_type_symbol
 _atom_site_label
 _atom_site_symmetry_multiplicity
 _atom_site_fract_x
 _atom_site_fract_y
 _atom_site_fract_z
 _atom_site_fract_occupancy
 Cl  Cl1  1  0.02236  0.51447  0.50538  1
 Cl  Cl2  1  0.51672  0.51477  0.01087  1
 Cl  Cl3  1  0.51645  0.02035  0.50538  1
 Ge  Ge1  1  0.49167  0.48966  0.47949  1
 Tl  Tl1  1  0.95280  0.95076  0.93888  1
