CIF file written using JARVIS-Tools package.
data_TiO2F
_symmetry_space_group_name_H-M  'Pmmm'
_cell_length_a       3.77124
_cell_length_b       3.81285
_cell_length_c       3.9398
_cell_angle_alpha    91.0698
_cell_angle_beta     90.1864
_cell_angle_gamma    90.3996

_symmetry_Int_Tables_number  47
_chemical_formula_structural  TiO2F
_chemical_formula_sum  TiO2F
_cell_volume  56.63952644697776
_cell_formula_units_Z  1
loop_
  _symmetry_equiv_pos_site_id
 _symmetry_equiv_pos_as_xyz
 1  'x, y, z'
loop_
 _atom_site_type_symbol
 _atom_site_label
 _atom_site_symmetry_multiplicity
 _atom_site_fract_x
 _atom_site_fract_y
 _atom_site_fract_z
 _atom_site_fract_occupancy
 F  F1  1  0.06841  0.01041  0.45591  1
 O  O1  1  0.06840  0.51036  -0.04411  1
 O  O2  1  0.56839  0.01028  0.95583  1
 Ti  Ti1  1  0.06838  0.01034  -0.04406  1
