CIF file written using JARVIS-Tools package.
data_SiHF
_symmetry_space_group_name_H-M  'Pm'
_cell_length_a       2.43289
_cell_length_b       6.87249
_cell_length_c       2.51749
_cell_angle_alpha    90
_cell_angle_beta     90
_cell_angle_gamma    90.9957

_symmetry_Int_Tables_number  6
_chemical_formula_structural  SiHF
_chemical_formula_sum  SiHF
_cell_volume  42.086023316707475
_cell_formula_units_Z  1
loop_
  _symmetry_equiv_pos_site_id
 _symmetry_equiv_pos_as_xyz
 1  'x, y, z'
loop_
 _atom_site_type_symbol
 _atom_site_label
 _atom_site_symmetry_multiplicity
 _atom_site_fract_x
 _atom_site_fract_y
 _atom_site_fract_z
 _atom_site_fract_occupancy
 F  F1  1  -0.07628  -0.11190  0.00000  1
 H  H1  1  0.31442  -0.08155  0.00000  1
 Si  Si1  1  -0.11696  0.39979  0.00000  1
