CIF file written using JARVIS-Tools package.
data_Li2FeF4
_symmetry_space_group_name_H-M  'Cmcm'
_cell_length_a       4.98157
_cell_length_b       4.98157
_cell_length_c       9.79895
_cell_angle_alpha    90
_cell_angle_beta     90
_cell_angle_gamma    147.237

_symmetry_Int_Tables_number  63
_chemical_formula_structural  Li2FeF4
_chemical_formula_sum  Li4Fe2F8
_cell_volume  131.59432397515934
_cell_formula_units_Z  2
loop_
  _symmetry_equiv_pos_site_id
 _symmetry_equiv_pos_as_xyz
 1  'x, y, z'
loop_
 _atom_site_type_symbol
 _atom_site_label
 _atom_site_symmetry_multiplicity
 _atom_site_fract_x
 _atom_site_fract_y
 _atom_site_fract_z
 _atom_site_fract_occupancy
 F  F1  1  0.00000  0.00000  0.00000  1
 F  F2  1  0.00000  0.00000  0.50000  1
 F  F3  1  0.53607  0.46393  0.25000  1
 F  F4  1  0.72636  0.27364  0.61853  1
 F  F5  1  0.72636  0.27364  0.88147  1
 F  F6  1  0.46393  0.53607  0.75000  1
 F  F7  1  0.27364  0.72636  0.11853  1
 F  F8  1  0.27364  0.72636  0.38147  1
 Fe  Fe1  1  0.87575  0.12425  0.25000  1
 Fe  Fe2  1  0.12425  0.87575  0.75000  1
 Li  Li1  1  0.62377  0.37623  0.06315  1
 Li  Li2  1  0.62377  0.37623  0.43685  1
 Li  Li3  1  0.37623  0.62377  0.56315  1
 Li  Li4  1  0.37623  0.62377  0.93685  1
