CIF file written using JARVIS-Tools package.
data_NbFeO4
_symmetry_space_group_name_H-M  'I-4m2'
_cell_length_a       5.52217
_cell_length_b       5.52201
_cell_length_c       5.71638
_cell_angle_alpha    61.117
_cell_angle_beta     90
_cell_angle_gamma    90

_symmetry_Int_Tables_number  119
_chemical_formula_structural  NbFeO4
_chemical_formula_sum  Nb2Fe2O8
_cell_volume  152.62911053256252
_cell_formula_units_Z  2
loop_
  _symmetry_equiv_pos_site_id
 _symmetry_equiv_pos_as_xyz
 1  'x, y, z'
loop_
 _atom_site_type_symbol
 _atom_site_label
 _atom_site_symmetry_multiplicity
 _atom_site_fract_x
 _atom_site_fract_y
 _atom_site_fract_z
 _atom_site_fract_occupancy
 Fe  Fe1  1  0.74999  0.50000  0.50000  1
 Fe  Fe2  1  0.24999  -0.00000  0.50000  1
 Nb  Nb1  1  0.00001  -0.00000  0.00000  1
 Nb  Nb2  1  0.50001  0.50000  -0.00000  1
 O  O1  1  0.25001  0.21140  0.07719  1
 O  O2  1  0.75001  0.71140  0.07720  1
 O  O3  1  0.25001  0.78860  0.92281  1
 O  O4  1  0.75001  0.28860  0.92280  1
 O  O5  1  0.49999  0.29665  0.40670  1
 O  O6  1  -0.00000  0.79665  0.40670  1
 O  O7  1  -0.00000  0.20335  0.59330  1
 O  O8  1  0.49999  0.70335  0.59330  1
