CIF file written using JARVIS-Tools package.
data_SiHO2
_symmetry_space_group_name_H-M  'P4mm'
_cell_length_a       3.28143
_cell_length_b       3.28143
_cell_length_c       3.45413
_cell_angle_alpha    90
_cell_angle_beta     90
_cell_angle_gamma    90

_symmetry_Int_Tables_number  99
_chemical_formula_structural  SiHO2
_chemical_formula_sum  SiHO2
_cell_volume  37.1933074575171
_cell_formula_units_Z  1
loop_
  _symmetry_equiv_pos_site_id
 _symmetry_equiv_pos_as_xyz
 1  'x, y, z'
loop_
 _atom_site_type_symbol
 _atom_site_label
 _atom_site_symmetry_multiplicity
 _atom_site_fract_x
 _atom_site_fract_y
 _atom_site_fract_z
 _atom_site_fract_occupancy
 H  H1  1  0.00000  0.00000  0.85754  1
 O  O1  1  0.00000  0.00000  0.57181  1
 O  O2  1  0.50000  0.50000  0.04362  1
 Si  Si1  1  0.50000  0.50000  0.53703  1
