CIF file written using JARVIS-Tools package.
data_HCl2
_symmetry_space_group_name_H-M  'P1'
_cell_length_a       5.27975
_cell_length_b       4.21947
_cell_length_c       3.80928
_cell_angle_alpha    124.108
_cell_angle_beta     110.671
_cell_angle_gamma    51.3969

_symmetry_Int_Tables_number  1
_chemical_formula_structural  HCl2
_chemical_formula_sum  HCl2
_cell_volume  54.91031662244839
_cell_formula_units_Z  1
loop_
  _symmetry_equiv_pos_site_id
 _symmetry_equiv_pos_as_xyz
 1  'x, y, z'
loop_
 _atom_site_type_symbol
 _atom_site_label
 _atom_site_symmetry_multiplicity
 _atom_site_fract_x
 _atom_site_fract_y
 _atom_site_fract_z
 _atom_site_fract_occupancy
 Cl  Cl1  1  0.68995  0.58202  0.79469  1
 Cl  Cl2  1  0.18553  0.59131  0.79485  1
 H  H1  1  -0.02662  0.01271  0.79455  1
