CIF file written using JARVIS-Tools package.
data_LiAg2
_symmetry_space_group_name_H-M  'P6/mmm'
_cell_length_a       4.81425
_cell_length_b       2.73491
_cell_length_c       4.81365
_cell_angle_alpha    90
_cell_angle_beta     119.985
_cell_angle_gamma    90

_symmetry_Int_Tables_number  191
_chemical_formula_structural  LiAg2
_chemical_formula_sum  LiAg2
_cell_volume  54.89605601668299
_cell_formula_units_Z  1
loop_
  _symmetry_equiv_pos_site_id
 _symmetry_equiv_pos_as_xyz
 1  'x, y, z'
loop_
 _atom_site_type_symbol
 _atom_site_label
 _atom_site_symmetry_multiplicity
 _atom_site_fract_x
 _atom_site_fract_y
 _atom_site_fract_z
 _atom_site_fract_occupancy
 Ag  Ag1  1  -0.24998  0.00000  -0.25555  1
 Ag  Ag2  1  0.41661  0.00000  0.07778  1
 Li  Li1  1  0.08338  0.00000  0.41118  1
