CIF file written using JARVIS-Tools package.
data_Li2Ag
_symmetry_space_group_name_H-M  'P2/m'
_cell_length_a       4.73289
_cell_length_b       2.69877
_cell_length_c       4.71176
_cell_angle_alpha    90
_cell_angle_beta     119.645
_cell_angle_gamma    90

_symmetry_Int_Tables_number  10
_chemical_formula_structural  Li2Ag
_chemical_formula_sum  Li2Ag
_cell_volume  52.30569463804028
_cell_formula_units_Z  1
loop_
  _symmetry_equiv_pos_site_id
 _symmetry_equiv_pos_as_xyz
 1  'x, y, z'
loop_
 _atom_site_type_symbol
 _atom_site_label
 _atom_site_symmetry_multiplicity
 _atom_site_fract_x
 _atom_site_fract_y
 _atom_site_fract_z
 _atom_site_fract_occupancy
 Ag  Ag1  1  0.46669  0.00000  0.13334  1
 Li  Li1  1  -0.20010  0.00000  -0.20013  1
 Li  Li2  1  0.13341  0.00000  0.46679  1
