CIF file written using JARVIS-Tools package.
data_LiO2
_symmetry_space_group_name_H-M  'Pmmm'
_cell_length_a       3.792
_cell_length_b       2.61263
_cell_length_c       2.9271
_cell_angle_alpha    90
_cell_angle_beta     89.9986
_cell_angle_gamma    90

_symmetry_Int_Tables_number  47
_chemical_formula_structural  LiO2
_chemical_formula_sum  LiO2
_cell_volume  28.999163878159486
_cell_formula_units_Z  1
loop_
  _symmetry_equiv_pos_site_id
 _symmetry_equiv_pos_as_xyz
 1  'x, y, z'
loop_
 _atom_site_type_symbol
 _atom_site_label
 _atom_site_symmetry_multiplicity
 _atom_site_fract_x
 _atom_site_fract_y
 _atom_site_fract_z
 _atom_site_fract_occupancy
 Li  Li1  1  0.46667  0.00000  0.13335  1
 O  O1  1  -0.20845  0.00000  -0.36669  1
 O  O2  1  0.14178  0.00000  -0.36666  1
