CIF file written using JARVIS-Tools package.
data_LiO3
_symmetry_space_group_name_H-M  'P1'
_cell_length_a       2.79175
_cell_length_b       5.22779
_cell_length_c       3.79809
_cell_angle_alpha    48.6959
_cell_angle_beta     110.87
_cell_angle_gamma    89.8628

_symmetry_Int_Tables_number  1
_chemical_formula_structural  LiO3
_chemical_formula_sum  LiO3
_cell_volume  36.613375432190814
_cell_formula_units_Z  1
loop_
  _symmetry_equiv_pos_site_id
 _symmetry_equiv_pos_as_xyz
 1  'x, y, z'
loop_
 _atom_site_type_symbol
 _atom_site_label
 _atom_site_symmetry_multiplicity
 _atom_site_fract_x
 _atom_site_fract_y
 _atom_site_fract_z
 _atom_site_fract_occupancy
 Li  Li1  1  -0.03095  0.08923  0.89464  1
 O  O1  1  -0.03177  0.58478  0.89287  1
 O  O2  1  0.19504  0.50673  0.34946  1
 O  O3  1  0.74984  0.95360  0.45626  1
