CIF file written using JARVIS-Tools package.
data_NaAlTe
_symmetry_space_group_name_H-M  'Amm2'
_cell_length_a       7.03333
_cell_length_b       4.00308
_cell_length_c       4.62255
_cell_angle_alpha    90
_cell_angle_beta     90
_cell_angle_gamma    106.538

_symmetry_Int_Tables_number  38
_chemical_formula_structural  NaAlTe
_chemical_formula_sum  NaAlTe
_cell_volume  124.76405849642767
_cell_formula_units_Z  1
loop_
  _symmetry_equiv_pos_site_id
 _symmetry_equiv_pos_as_xyz
 1  'x, y, z'
loop_
 _atom_site_type_symbol
 _atom_site_label
 _atom_site_symmetry_multiplicity
 _atom_site_fract_x
 _atom_site_fract_y
 _atom_site_fract_z
 _atom_site_fract_occupancy
 Al  Al1  1  0.37344  0.01998  0.00000  1
 Na  Na1  1  -0.00768  0.32962  0.00000  1
 Te  Te1  1  0.63424  0.65040  0.00000  1
