CIF file written using JARVIS-Tools package.
data_HfSe2
_symmetry_space_group_name_H-M  'P-4m2'
_cell_length_a       5.92701
_cell_length_b       3.9755
_cell_length_c       3.97415
_cell_angle_alpha    90.0362
_cell_angle_beta     89.8838
_cell_angle_gamma    90.0181

_symmetry_Int_Tables_number  115
_chemical_formula_structural  HfSe2
_chemical_formula_sum  HfSe2
_cell_volume  93.64197804583215
_cell_formula_units_Z  1
loop_
  _symmetry_equiv_pos_site_id
 _symmetry_equiv_pos_as_xyz
 1  'x, y, z'
loop_
 _atom_site_type_symbol
 _atom_site_label
 _atom_site_symmetry_multiplicity
 _atom_site_fract_x
 _atom_site_fract_y
 _atom_site_fract_z
 _atom_site_fract_occupancy
 Hf  Hf1  1  0.91592  0.96397  0.86627  1
 Se  Se1  1  0.65134  0.96385  0.36701  1
 Se  Se2  1  0.18038  0.46407  0.86600  1
