CIF file written using JARVIS-Tools package.
data_BeBr2
_symmetry_space_group_name_H-M  'Pmm2'
_cell_length_a       7.47986
_cell_length_b       4.06198
_cell_length_c       3.55173
_cell_angle_alpha    90
_cell_angle_beta     61.6721
_cell_angle_gamma    90

_symmetry_Int_Tables_number  25
_chemical_formula_structural  BeBr2
_chemical_formula_sum  BeBr2
_cell_volume  94.98935246763229
_cell_formula_units_Z  1
loop_
  _symmetry_equiv_pos_site_id
 _symmetry_equiv_pos_as_xyz
 1  'x, y, z'
loop_
 _atom_site_type_symbol
 _atom_site_label
 _atom_site_symmetry_multiplicity
 _atom_site_fract_x
 _atom_site_fract_y
 _atom_site_fract_z
 _atom_site_fract_occupancy
 Be  Be1  1  0.11127  0.00000  -0.13744  1
 Br  Br1  1  -0.18886  0.00000  0.16259  1
 Br  Br2  1  0.30468  0.00000  0.16927  1
