CIF file written using JARVIS-Tools package.
data_SrMgO
_symmetry_space_group_name_H-M  'Pm'
_cell_length_a       3.22785
_cell_length_b       7.78133
_cell_length_c       3.8415
_cell_angle_alpha    90
_cell_angle_beta     90
_cell_angle_gamma    53.268

_symmetry_Int_Tables_number  6
_chemical_formula_structural  SrMgO
_chemical_formula_sum  SrMgO
_cell_volume  77.32864698872775
_cell_formula_units_Z  1
loop_
  _symmetry_equiv_pos_site_id
 _symmetry_equiv_pos_as_xyz
 1  'x, y, z'
loop_
 _atom_site_type_symbol
 _atom_site_label
 _atom_site_symmetry_multiplicity
 _atom_site_fract_x
 _atom_site_fract_y
 _atom_site_fract_z
 _atom_site_fract_occupancy
 Mg  Mg1  1  -0.09187  -0.10496  0.00000  1
 O  O1  1  0.11381  0.09643  0.00000  1
 Sr  Sr1  1  0.19908  0.38021  0.00000  1
