CIF file written using JARVIS-Tools package.
data_MgTaO
_symmetry_space_group_name_H-M  'P4mm'
_cell_length_a       2.94584
_cell_length_b       2.94584
_cell_length_c       6.71449
_cell_angle_alpha    90
_cell_angle_beta     90
_cell_angle_gamma    90

_symmetry_Int_Tables_number  99
_chemical_formula_structural  MgTaO
_chemical_formula_sum  MgTaO
_cell_volume  58.268257843857185
_cell_formula_units_Z  1
loop_
  _symmetry_equiv_pos_site_id
 _symmetry_equiv_pos_as_xyz
 1  'x, y, z'
loop_
 _atom_site_type_symbol
 _atom_site_label
 _atom_site_symmetry_multiplicity
 _atom_site_fract_x
 _atom_site_fract_y
 _atom_site_fract_z
 _atom_site_fract_occupancy
 Mg  Mg1  1  0.00000  0.00000  0.28882  1
 O  O1  1  0.00000  0.00000  0.00376  1
 Ta  Ta1  1  0.00000  0.00000  0.73620  1
