CIF file written using JARVIS-Tools package.
data_LiNbSe2
_symmetry_space_group_name_H-M  'P3m1'
_cell_length_a       3.61723
_cell_length_b       3.61724
_cell_length_c       7.30824
_cell_angle_alpha    90
_cell_angle_beta     90
_cell_angle_gamma    120

_symmetry_Int_Tables_number  156
_chemical_formula_structural  LiNbSe2
_chemical_formula_sum  LiNbSe2
_cell_volume  82.81260915103837
_cell_formula_units_Z  1
loop_
  _symmetry_equiv_pos_site_id
 _symmetry_equiv_pos_as_xyz
 1  'x, y, z'
loop_
 _atom_site_type_symbol
 _atom_site_label
 _atom_site_symmetry_multiplicity
 _atom_site_fract_x
 _atom_site_fract_y
 _atom_site_fract_z
 _atom_site_fract_occupancy
 Li  Li1  1  0.00000  0.00000  0.79108  1
 Nb  Nb1  1  0.33333  0.66667  0.32135  1
 Se  Se1  1  0.33333  0.66667  0.99457  1
 Se  Se2  1  0.66667  0.33333  0.54121  1
