CIF file written using JARVIS-Tools package.
data_LiZnO
_symmetry_space_group_name_H-M  'Pm'
_cell_length_a       2.85398
_cell_length_b       6.66402
_cell_length_c       3.27538
_cell_angle_alpha    90
_cell_angle_beta     90
_cell_angle_gamma    50.4598

_symmetry_Int_Tables_number  6
_chemical_formula_structural  LiZnO
_chemical_formula_sum  LiZnO
_cell_volume  48.039828079345604
_cell_formula_units_Z  1
loop_
  _symmetry_equiv_pos_site_id
 _symmetry_equiv_pos_as_xyz
 1  'x, y, z'
loop_
 _atom_site_type_symbol
 _atom_site_label
 _atom_site_symmetry_multiplicity
 _atom_site_fract_x
 _atom_site_fract_y
 _atom_site_fract_z
 _atom_site_fract_occupancy
 Li  Li1  1  -0.08026  -0.13346  0.00000  1
 O  O1  1  0.08775  0.08968  0.00000  1
 Zn  Zn1  1  0.20853  0.34453  0.00000  1
