CIF file written using JARVIS-Tools package.
data_BeS
_symmetry_space_group_name_H-M  'F-43m'
_cell_length_a       4.87013
_cell_length_b       3.44255
_cell_length_c       6.88396
_cell_angle_alpha    60.0343
_cell_angle_beta     89.9769
_cell_angle_gamma    135.006

_symmetry_Int_Tables_number  216
_chemical_formula_structural  BeS
_chemical_formula_sum  Be2S2
_cell_volume  57.72291613367651
_cell_formula_units_Z  2
loop_
  _symmetry_equiv_pos_site_id
 _symmetry_equiv_pos_as_xyz
 1  'x, y, z'
loop_
 _atom_site_type_symbol
 _atom_site_label
 _atom_site_symmetry_multiplicity
 _atom_site_fract_x
 _atom_site_fract_y
 _atom_site_fract_z
 _atom_site_fract_occupancy
 Be  Be1  1  0.96049  0.25059  0.03893  1
 Be  Be2  1  0.96044  0.25054  0.53894  1
 S  S1  1  0.21053  0.25059  0.28890  1
 S  S2  1  0.21051  0.25058  0.78890  1
