CIF file written using JARVIS-Tools package.
data_N2Cl
_symmetry_space_group_name_H-M  'Pmmm'
_cell_length_a       4.19505
_cell_length_b       6.8972
_cell_length_c       2.63219
_cell_angle_alpha    90
_cell_angle_beta     90
_cell_angle_gamma    90

_symmetry_Int_Tables_number  47
_chemical_formula_structural  N2Cl
_chemical_formula_sum  N2Cl
_cell_volume  76.16003965094878
_cell_formula_units_Z  1
loop_
  _symmetry_equiv_pos_site_id
 _symmetry_equiv_pos_as_xyz
 1  'x, y, z'
loop_
 _atom_site_type_symbol
 _atom_site_label
 _atom_site_symmetry_multiplicity
 _atom_site_fract_x
 _atom_site_fract_y
 _atom_site_fract_z
 _atom_site_fract_occupancy
 Cl  Cl1  1  0.00000  0.44000  0.00000  1
 N  N1  1  0.13198  0.94000  0.00000  1
 N  N2  1  0.86802  0.94000  0.00000  1
