CIF file written using JARVIS-Tools package.
data_Cl
_symmetry_space_group_name_H-M  'Cmmm'
_cell_length_a       5.16061
_cell_length_b       2.95078
_cell_length_c       5.16061
_cell_angle_alpha    90
_cell_angle_beta     95.3545
_cell_angle_gamma    90

_symmetry_Int_Tables_number  65
_chemical_formula_structural  Cl
_chemical_formula_sum  Cl3
_cell_volume  78.24226351467614
_cell_formula_units_Z  3
loop_
  _symmetry_equiv_pos_site_id
 _symmetry_equiv_pos_as_xyz
 1  'x, y, z'
loop_
 _atom_site_type_symbol
 _atom_site_label
 _atom_site_symmetry_multiplicity
 _atom_site_fract_x
 _atom_site_fract_y
 _atom_site_fract_z
 _atom_site_fract_occupancy
 Cl  Cl1  1  -0.20000  0.00000  -0.20000  1
 Cl  Cl2  1  0.09629  0.00000  0.50371  1
 Cl  Cl3  1  0.50371  0.00000  0.09629  1
