CIF file written using JARVIS-Tools package.
data_Mg2C
_symmetry_space_group_name_H-M  'P-1'
_cell_length_a       3.78369
_cell_length_b       6.57134
_cell_length_c       3.7972
_cell_angle_alpha    149.497
_cell_angle_beta     119.542
_cell_angle_gamma    55.3475

_symmetry_Int_Tables_number  2
_chemical_formula_structural  Mg2C
_chemical_formula_sum  Mg2C
_cell_volume  39.420504873286916
_cell_formula_units_Z  1
loop_
  _symmetry_equiv_pos_site_id
 _symmetry_equiv_pos_as_xyz
 1  'x, y, z'
loop_
 _atom_site_type_symbol
 _atom_site_label
 _atom_site_symmetry_multiplicity
 _atom_site_fract_x
 _atom_site_fract_y
 _atom_site_fract_z
 _atom_site_fract_occupancy
 C  C1  1  0.05954  0.94308  0.97210  1
 Mg  Mg1  1  0.80934  0.69361  -0.02733  1
 Mg  Mg2  1  0.30968  0.19257  -0.02847  1
