CIF file written using JARVIS-Tools package.
data_CaAsN
_symmetry_space_group_name_H-M  'P4/nmm'
_cell_length_a       3.50364
_cell_length_b       3.50364
_cell_length_c       8.89771
_cell_angle_alpha    90
_cell_angle_beta     90
_cell_angle_gamma    90

_symmetry_Int_Tables_number  129
_chemical_formula_structural  CaAsN
_chemical_formula_sum  Ca2As2N2
_cell_volume  109.22358805823913
_cell_formula_units_Z  2
loop_
  _symmetry_equiv_pos_site_id
 _symmetry_equiv_pos_as_xyz
 1  'x, y, z'
loop_
 _atom_site_type_symbol
 _atom_site_label
 _atom_site_symmetry_multiplicity
 _atom_site_fract_x
 _atom_site_fract_y
 _atom_site_fract_z
 _atom_site_fract_occupancy
 As  As1  1  0.50000  0.00000  0.84460  1
 As  As2  1  0.00000  0.50000  0.15540  1
 Ca  Ca1  1  0.00000  0.50000  0.63277  1
 Ca  Ca2  1  0.50000  0.00000  0.36723  1
 N  N1  1  0.50000  0.00000  0.63713  1
 N  N2  1  0.00000  0.50000  0.36287  1
