CIF file written using JARVIS-Tools package.
data_Mg2Se
_symmetry_space_group_name_H-M  'C2/m'
_cell_length_a       3.78129
_cell_length_b       5.647
_cell_length_c       3.79497
_cell_angle_alpha    90.0741
_cell_angle_beta     119.846
_cell_angle_gamma    90.0381

_symmetry_Int_Tables_number  12
_chemical_formula_structural  Mg2Se
_chemical_formula_sum  Mg2Se
_cell_volume  70.28586014902618
_cell_formula_units_Z  1
loop_
  _symmetry_equiv_pos_site_id
 _symmetry_equiv_pos_as_xyz
 1  'x, y, z'
loop_
 _atom_site_type_symbol
 _atom_site_label
 _atom_site_symmetry_multiplicity
 _atom_site_fract_x
 _atom_site_fract_y
 _atom_site_fract_z
 _atom_site_fract_occupancy
 Mg  Mg1  1  0.69652  0.42570  0.37812  1
 Mg  Mg2  1  0.36091  0.85754  0.70638  1
 Se  Se1  1  0.02871  0.14159  0.04211  1
