CIF file written using JARVIS-Tools package.
data_MgSe2
_symmetry_space_group_name_H-M  'Pmmm'
_cell_length_a       4.16135
_cell_length_b       3.83482
_cell_length_c       5.58187
_cell_angle_alpha    90
_cell_angle_beta     90
_cell_angle_gamma    90

_symmetry_Int_Tables_number  47
_chemical_formula_structural  MgSe2
_chemical_formula_sum  MgSe2
_cell_volume  89.07552085627051
_cell_formula_units_Z  1
loop_
  _symmetry_equiv_pos_site_id
 _symmetry_equiv_pos_as_xyz
 1  'x, y, z'
loop_
 _atom_site_type_symbol
 _atom_site_label
 _atom_site_symmetry_multiplicity
 _atom_site_fract_x
 _atom_site_fract_y
 _atom_site_fract_z
 _atom_site_fract_occupancy
 Mg  Mg1  1  0.46667  0.00000  0.00000  1
 Se  Se1  1  -0.03333  0.00000  0.72960  1
 Se  Se2  1  -0.03333  0.00000  0.27040  1
