CIF file written using JARVIS-Tools package.
data_InSbBr
_symmetry_space_group_name_H-M  'P4mm'
_cell_length_a       3.31171
_cell_length_b       3.31171
_cell_length_c       8.71126
_cell_angle_alpha    90
_cell_angle_beta     90
_cell_angle_gamma    90

_symmetry_Int_Tables_number  99
_chemical_formula_structural  InSbBr
_chemical_formula_sum  InSbBr
_cell_volume  95.54030838724442
_cell_formula_units_Z  1
loop_
  _symmetry_equiv_pos_site_id
 _symmetry_equiv_pos_as_xyz
 1  'x, y, z'
loop_
 _atom_site_type_symbol
 _atom_site_label
 _atom_site_symmetry_multiplicity
 _atom_site_fract_x
 _atom_site_fract_y
 _atom_site_fract_z
 _atom_site_fract_occupancy
 Br  Br1  1  0.00000  0.00000  -0.00261  1
 In  In1  1  0.00000  0.00000  0.32301  1
 Sb  Sb1  1  0.00000  0.00000  0.68809  1
