CIF file written using JARVIS-Tools package.
data_NaZnSe
_symmetry_space_group_name_H-M  'Amm2'
_cell_length_a       5.85673
_cell_length_b       4.11968
_cell_length_c       4.15658
_cell_angle_alpha    90
_cell_angle_beta     90
_cell_angle_gamma    110.585

_symmetry_Int_Tables_number  38
_chemical_formula_structural  NaZnSe
_chemical_formula_sum  NaZnSe
_cell_volume  93.88592251194389
_cell_formula_units_Z  1
loop_
  _symmetry_equiv_pos_site_id
 _symmetry_equiv_pos_as_xyz
 1  'x, y, z'
loop_
 _atom_site_type_symbol
 _atom_site_label
 _atom_site_symmetry_multiplicity
 _atom_site_fract_x
 _atom_site_fract_y
 _atom_site_fract_z
 _atom_site_fract_occupancy
 Na  Na1  1  0.32596  -0.00369  0.00000  1
 Se  Se1  1  0.95537  0.31097  0.00000  1
 Zn  Zn1  1  0.71867  0.69272  0.00000  1
