CIF file written using JARVIS-Tools package.
data_LiN2
_symmetry_space_group_name_H-M  'P2/m'
_cell_length_a       3.79667
_cell_length_b       2.88794
_cell_length_c       2.99504
_cell_angle_alpha    90
_cell_angle_beta     86.1586
_cell_angle_gamma    90

_symmetry_Int_Tables_number  10
_chemical_formula_structural  LiN2
_chemical_formula_sum  LiN2
_cell_volume  32.76556909680358
_cell_formula_units_Z  1
loop_
  _symmetry_equiv_pos_site_id
 _symmetry_equiv_pos_as_xyz
 1  'x, y, z'
loop_
 _atom_site_type_symbol
 _atom_site_label
 _atom_site_symmetry_multiplicity
 _atom_site_fract_x
 _atom_site_fract_y
 _atom_site_fract_z
 _atom_site_fract_occupancy
 Li  Li1  1  0.46692  0.00000  0.13292  1
 N  N1  1  -0.15307  0.00000  -0.48014  1
 N  N2  1  0.08615  0.00000  0.74722  1
