CIF file written using JARVIS-Tools package.
data_Na2Se
_symmetry_space_group_name_H-M  'Amm2'
_cell_length_a       4.35671
_cell_length_b       5.1688
_cell_length_c       5.16867
_cell_angle_alpha    46.8801
_cell_angle_beta     89.9341
_cell_angle_gamma    89.9351

_symmetry_Int_Tables_number  38
_chemical_formula_structural  Na2Se
_chemical_formula_sum  Na2Se
_cell_volume  84.95802496410415
_cell_formula_units_Z  1
loop_
  _symmetry_equiv_pos_site_id
 _symmetry_equiv_pos_as_xyz
 1  'x, y, z'
loop_
 _atom_site_type_symbol
 _atom_site_label
 _atom_site_symmetry_multiplicity
 _atom_site_fract_x
 _atom_site_fract_y
 _atom_site_fract_z
 _atom_site_fract_occupancy
 Na  Na1  1  0.92574  0.30759  0.31636  1
 Na  Na2  1  0.42516  0.56343  0.57257  1
 Se  Se1  1  0.92530  0.01401  0.02290  1
