CIF file written using JARVIS-Tools package.
data_Mg2N
_symmetry_space_group_name_H-M  'P2/m'
_cell_length_a       3.08067
_cell_length_b       3.71063
_cell_length_c       5.76275
_cell_angle_alpha    90
_cell_angle_beta     105.156
_cell_angle_gamma    90

_symmetry_Int_Tables_number  10
_chemical_formula_structural  Mg2N
_chemical_formula_sum  Mg2N
_cell_volume  63.584085431749656
_cell_formula_units_Z  1
loop_
  _symmetry_equiv_pos_site_id
 _symmetry_equiv_pos_as_xyz
 1  'x, y, z'
loop_
 _atom_site_type_symbol
 _atom_site_label
 _atom_site_symmetry_multiplicity
 _atom_site_fract_x
 _atom_site_fract_y
 _atom_site_fract_z
 _atom_site_fract_occupancy
 Mg  Mg1  1  -0.14700  0.00000  -0.09861  1
 Mg  Mg2  1  0.08034  0.00000  0.36527  1
 N  N1  1  0.46667  0.00000  0.13334  1
