CIF file written using JARVIS-Tools package.
data_AsC2
_symmetry_space_group_name_H-M  'Pmm2'
_cell_length_a       4.27591
_cell_length_b       3.06149
_cell_length_c       3.54368
_cell_angle_alpha    90
_cell_angle_beta     90.0113
_cell_angle_gamma    90

_symmetry_Int_Tables_number  25
_chemical_formula_structural  AsC2
_chemical_formula_sum  AsC2
_cell_volume  46.388994202083296
_cell_formula_units_Z  1
loop_
  _symmetry_equiv_pos_site_id
 _symmetry_equiv_pos_as_xyz
 1  'x, y, z'
loop_
 _atom_site_type_symbol
 _atom_site_label
 _atom_site_symmetry_multiplicity
 _atom_site_fract_x
 _atom_site_fract_y
 _atom_site_fract_z
 _atom_site_fract_occupancy
 As  As1  1  0.46669  0.00000  0.01513  1
 C  C1  1  -0.17890  0.00000  -0.30755  1
 C  C2  1  0.11220  0.00000  0.69242  1
