CIF file written using JARVIS-Tools package.
data_As2C
_symmetry_space_group_name_H-M  'Pmm2'
_cell_length_a       2.9841
_cell_length_b       3.24175
_cell_length_c       6.52274
_cell_angle_alpha    90
_cell_angle_beta     89.9311
_cell_angle_gamma    90

_symmetry_Int_Tables_number  25
_chemical_formula_structural  As2C
_chemical_formula_sum  As2C
_cell_volume  63.099159094050854
_cell_formula_units_Z  1
loop_
  _symmetry_equiv_pos_site_id
 _symmetry_equiv_pos_as_xyz
 1  'x, y, z'
loop_
 _atom_site_type_symbol
 _atom_site_label
 _atom_site_symmetry_multiplicity
 _atom_site_fract_x
 _atom_site_fract_y
 _atom_site_fract_z
 _atom_site_fract_occupancy
 As  As1  1  -0.19942  0.00000  -0.08104  1
 As  As2  1  0.29933  0.00000  0.38308  1
 C  C1  1  0.30009  0.00000  0.09795  1
