CIF file written using JARVIS-Tools package.
data_Li2AuS2
_symmetry_space_group_name_H-M  'Immm'
_cell_length_a       6.43353
_cell_length_b       6.43353
_cell_length_c       6.43353
_cell_angle_alpha    146.578
_cell_angle_beta     139.161
_cell_angle_gamma    53.7592

_symmetry_Int_Tables_number  71
_chemical_formula_structural  Li2AuS2
_chemical_formula_sum  Li2AuS2
_cell_volume  95.313741160626
_cell_formula_units_Z  1
loop_
  _symmetry_equiv_pos_site_id
 _symmetry_equiv_pos_as_xyz
 1  'x, y, z'
loop_
 _atom_site_type_symbol
 _atom_site_label
 _atom_site_symmetry_multiplicity
 _atom_site_fract_x
 _atom_site_fract_y
 _atom_site_fract_z
 _atom_site_fract_occupancy
 Au  Au1  1  0.50000  0.00000  0.50000  1
 Li  Li1  1  0.20411  0.70411  0.50000  1
 Li  Li2  1  0.79589  0.29589  0.50000  1
 S  S1  1  0.64296  0.64296  0.00000  1
 S  S2  1  0.35704  0.35704  0.00000  1
