CIF file written using JARVIS-Tools package.
data_Pb2Br
_symmetry_space_group_name_H-M  'Pmmm'
_cell_length_a       5.48297
_cell_length_b       3.37808
_cell_length_c       6.44886
_cell_angle_alpha    90
_cell_angle_beta     90
_cell_angle_gamma    90

_symmetry_Int_Tables_number  47
_chemical_formula_structural  Pb2Br
_chemical_formula_sum  Pb2Br
_cell_volume  119.44538272047218
_cell_formula_units_Z  1
loop_
  _symmetry_equiv_pos_site_id
 _symmetry_equiv_pos_as_xyz
 1  'x, y, z'
loop_
 _atom_site_type_symbol
 _atom_site_label
 _atom_site_symmetry_multiplicity
 _atom_site_fract_x
 _atom_site_fract_y
 _atom_site_fract_z
 _atom_site_fract_occupancy
 Br  Br1  1  0.46667  0.00000  0.00000  1
 Pb  Pb1  1  -0.03333  0.00000  0.75639  1
 Pb  Pb2  1  -0.03333  0.00000  0.24361  1
