CIF file written using JARVIS-Tools package.
data_NaBH2
_symmetry_space_group_name_H-M  'P4mm'
_cell_length_a       2.77634
_cell_length_b       2.77634
_cell_length_c       4.39895
_cell_angle_alpha    90
_cell_angle_beta     90
_cell_angle_gamma    90

_symmetry_Int_Tables_number  99
_chemical_formula_structural  NaBH2
_chemical_formula_sum  NaBH2
_cell_volume  33.90728632303704
_cell_formula_units_Z  1
loop_
  _symmetry_equiv_pos_site_id
 _symmetry_equiv_pos_as_xyz
 1  'x, y, z'
loop_
 _atom_site_type_symbol
 _atom_site_label
 _atom_site_symmetry_multiplicity
 _atom_site_fract_x
 _atom_site_fract_y
 _atom_site_fract_z
 _atom_site_fract_occupancy
 B  B1  1  0.00000  0.00000  0.03851  1
 H  H1  1  0.00000  0.00000  0.32025  1
 H  H2  1  0.50000  0.50000  0.06136  1
 Na  Na1  1  0.50000  0.50000  0.58988  1
