CIF file written using JARVIS-Tools package.
data_AsP
_symmetry_space_group_name_H-M  'Pm'
_cell_length_a       4.398
_cell_length_b       4.50957
_cell_length_c       4.44536
_cell_angle_alpha    101.786
_cell_angle_beta     36.7342
_cell_angle_gamma    79.3428

_symmetry_Int_Tables_number  6
_chemical_formula_structural  AsP
_chemical_formula_sum  AsP
_cell_volume  41.47167999091765
_cell_formula_units_Z  1
loop_
  _symmetry_equiv_pos_site_id
 _symmetry_equiv_pos_as_xyz
 1  'x, y, z'
loop_
 _atom_site_type_symbol
 _atom_site_label
 _atom_site_symmetry_multiplicity
 _atom_site_fract_x
 _atom_site_fract_y
 _atom_site_fract_z
 _atom_site_fract_occupancy
 As  As1  1  0.01474  0.59626  0.12189  1
 P  P1  1  0.71255  0.09641  0.80380  1
