CIF file written using JARVIS-Tools package.
data_BH2O2
_symmetry_space_group_name_H-M  'P3m1'
_cell_length_a       3.2078
_cell_length_b       3.2078
_cell_length_c       4.39621
_cell_angle_alpha    90
_cell_angle_beta     90
_cell_angle_gamma    120

_symmetry_Int_Tables_number  156
_chemical_formula_structural  BH2O2
_chemical_formula_sum  BH2O2
_cell_volume  39.17639867858866
_cell_formula_units_Z  1
loop_
  _symmetry_equiv_pos_site_id
 _symmetry_equiv_pos_as_xyz
 1  'x, y, z'
loop_
 _atom_site_type_symbol
 _atom_site_label
 _atom_site_symmetry_multiplicity
 _atom_site_fract_x
 _atom_site_fract_y
 _atom_site_fract_z
 _atom_site_fract_occupancy
 B  B1  1  0.00000  0.00000  0.93626  1
 H  H1  1  0.66667  0.33333  0.03848  1
 H  H2  1  0.33333  0.66667  0.43014  1
 O  O1  1  0.66667  0.33333  0.81115  1
 O  O2  1  0.33333  0.66667  0.20645  1
