CIF file written using JARVIS-Tools package.
data_AuBr3
_symmetry_space_group_name_H-M  'P1'
_cell_length_a       7.58372
_cell_length_b       6.69065
_cell_length_c       6.29219
_cell_angle_alpha    50.2912
_cell_angle_beta     68.9322
_cell_angle_gamma    33.9171

_symmetry_Int_Tables_number  1
_chemical_formula_structural  AuBr3
_chemical_formula_sum  AuBr3
_cell_volume  125.74693862809482
_cell_formula_units_Z  1
loop_
  _symmetry_equiv_pos_site_id
 _symmetry_equiv_pos_as_xyz
 1  'x, y, z'
loop_
 _atom_site_type_symbol
 _atom_site_label
 _atom_site_symmetry_multiplicity
 _atom_site_fract_x
 _atom_site_fract_y
 _atom_site_fract_z
 _atom_site_fract_occupancy
 Au  Au1  1  0.09401  0.64858  0.78863  1
 Br  Br1  1  0.87309  0.02718  0.97315  1
 Br  Br2  1  0.68460  0.47919  0.24217  1
 Br  Br3  1  0.30851  0.20703  0.65978  1
