CIF file written using JARVIS-Tools package.
data_BSe2
_symmetry_space_group_name_H-M  'Pm'
_cell_length_a       3.06609
_cell_length_b       3.82807
_cell_length_c       7.20988
_cell_angle_alpha    90
_cell_angle_beta     66.5045
_cell_angle_gamma    90

_symmetry_Int_Tables_number  6
_chemical_formula_structural  BSe2
_chemical_formula_sum  BSe2
_cell_volume  77.6080037076988
_cell_formula_units_Z  1
loop_
  _symmetry_equiv_pos_site_id
 _symmetry_equiv_pos_as_xyz
 1  'x, y, z'
loop_
 _atom_site_type_symbol
 _atom_site_label
 _atom_site_symmetry_multiplicity
 _atom_site_fract_x
 _atom_site_fract_y
 _atom_site_fract_z
 _atom_site_fract_occupancy
 B  B1  1  0.33316  0.00000  0.09794  1
 Se  Se1  1  0.00407  0.00000  -0.08414  1
 Se  Se2  1  0.06277  0.00000  0.38620  1
