CIF file written using JARVIS-Tools package.
data_CaC
_symmetry_space_group_name_H-M  'P4/mmm'
_cell_length_a       5.20743
_cell_length_b       3.69174
_cell_length_c       6.22218
_cell_angle_alpha    89.076
_cell_angle_beta     88.7063
_cell_angle_gamma    45.1495

_symmetry_Int_Tables_number  123
_chemical_formula_structural  CaC
_chemical_formula_sum  Ca2C2
_cell_volume  84.7816705328518
_cell_formula_units_Z  2
loop_
  _symmetry_equiv_pos_site_id
 _symmetry_equiv_pos_as_xyz
 1  'x, y, z'
loop_
 _atom_site_type_symbol
 _atom_site_label
 _atom_site_symmetry_multiplicity
 _atom_site_fract_x
 _atom_site_fract_y
 _atom_site_fract_z
 _atom_site_fract_occupancy
 C  C1  1  0.11486  0.13339  0.52324  1
 C  C2  1  0.11645  0.13341  0.31612  1
 Ca  Ca1  1  0.11571  0.13313  0.91968  1
 Ca  Ca2  1  0.61567  0.13338  0.41967  1
