CIF file written using JARVIS-Tools package.
data_BaVO
_symmetry_space_group_name_H-M  'P4mm'
_cell_length_a       3.1864
_cell_length_b       3.1864
_cell_length_c       7.01671
_cell_angle_alpha    90
_cell_angle_beta     90
_cell_angle_gamma    90

_symmetry_Int_Tables_number  99
_chemical_formula_structural  BaVO
_chemical_formula_sum  BaVO
_cell_volume  71.24174556149354
_cell_formula_units_Z  1
loop_
  _symmetry_equiv_pos_site_id
 _symmetry_equiv_pos_as_xyz
 1  'x, y, z'
loop_
 _atom_site_type_symbol
 _atom_site_label
 _atom_site_symmetry_multiplicity
 _atom_site_fract_x
 _atom_site_fract_y
 _atom_site_fract_z
 _atom_site_fract_occupancy
 Ba  Ba1  1  0.00000  0.00000  0.33412  1
 O  O1  1  0.00000  0.00000  -0.01519  1
 V  V1  1  0.00000  0.00000  0.74855  1
