CIF file written using JARVIS-Tools package.
data_BaSe2
_symmetry_space_group_name_H-M  'Pm'
_cell_length_a       5.01883
_cell_length_b       10.1659
_cell_length_c       4.41233
_cell_angle_alpha    150.198
_cell_angle_beta     90.0135
_cell_angle_gamma    77.7734

_symmetry_Int_Tables_number  6
_chemical_formula_structural  BaSe2
_chemical_formula_sum  BaSe2
_cell_volume  101.24108696052062
_cell_formula_units_Z  1
loop_
  _symmetry_equiv_pos_site_id
 _symmetry_equiv_pos_as_xyz
 1  'x, y, z'
loop_
 _atom_site_type_symbol
 _atom_site_label
 _atom_site_symmetry_multiplicity
 _atom_site_fract_x
 _atom_site_fract_y
 _atom_site_fract_z
 _atom_site_fract_occupancy
 Ba  Ba1  1  0.08799  0.92916  0.03150  1
 Se  Se1  1  0.01537  0.45870  0.59061  1
 Se  Se2  1  0.52658  0.05321  0.77956  1
