CIF file written using JARVIS-Tools package.
data_CaPN2
_symmetry_space_group_name_H-M  'P4mm'
_cell_length_a       3.14821
_cell_length_b       3.14821
_cell_length_c       5.18147
_cell_angle_alpha    90
_cell_angle_beta     90
_cell_angle_gamma    90

_symmetry_Int_Tables_number  99
_chemical_formula_structural  CaPN2
_chemical_formula_sum  CaPN2
_cell_volume  51.35470710606712
_cell_formula_units_Z  1
loop_
  _symmetry_equiv_pos_site_id
 _symmetry_equiv_pos_as_xyz
 1  'x, y, z'
loop_
 _atom_site_type_symbol
 _atom_site_label
 _atom_site_symmetry_multiplicity
 _atom_site_fract_x
 _atom_site_fract_y
 _atom_site_fract_z
 _atom_site_fract_occupancy
 Ca  Ca1  1  0.50000  0.50000  0.47303  1
 N  N1  1  0.00000  0.00000  0.61242  1
 N  N2  1  0.50000  0.50000  0.00679  1
 P  P1  1  0.00000  0.00000  0.91776  1
