CIF file written using JARVIS-Tools package.
data_Cd2O
_symmetry_space_group_name_H-M  'Pmm2'
_cell_length_a       3.42068
_cell_length_b       3.36904
_cell_length_c       5.65624
_cell_angle_alpha    90
_cell_angle_beta     90.0077
_cell_angle_gamma    90

_symmetry_Int_Tables_number  25
_chemical_formula_structural  Cd2O
_chemical_formula_sum  Cd2O
_cell_volume  65.18480653726188
_cell_formula_units_Z  1
loop_
  _symmetry_equiv_pos_site_id
 _symmetry_equiv_pos_as_xyz
 1  'x, y, z'
loop_
 _atom_site_type_symbol
 _atom_site_label
 _atom_site_symmetry_multiplicity
 _atom_site_fract_x
 _atom_site_fract_y
 _atom_site_fract_z
 _atom_site_fract_occupancy
 Cd  Cd1  1  -0.19994  0.00000  -0.14106  1
 Cd  Cd2  1  0.29982  0.00000  0.45438  1
 O  O1  1  0.30012  0.00000  0.08668  1
