CIF file written using JARVIS-Tools package.
data_PdHCl
_symmetry_space_group_name_H-M  'P-3m1'
_cell_length_a       3.3193
_cell_length_b       3.3193
_cell_length_c       8.7643
_cell_angle_alpha    90
_cell_angle_beta     90
_cell_angle_gamma    120

_symmetry_Int_Tables_number  164
_chemical_formula_structural  PdHCl
_chemical_formula_sum  Pd2H2Cl2
_cell_volume  83.62609510328141
_cell_formula_units_Z  2
loop_
  _symmetry_equiv_pos_site_id
 _symmetry_equiv_pos_as_xyz
 1  'x, y, z'
loop_
 _atom_site_type_symbol
 _atom_site_label
 _atom_site_symmetry_multiplicity
 _atom_site_fract_x
 _atom_site_fract_y
 _atom_site_fract_z
 _atom_site_fract_occupancy
 Cl  Cl1  1  0.33333  0.66667  0.15787  1
 Cl  Cl2  1  0.66667  0.33333  0.84213  1
 H  H1  1  0.33333  0.66667  0.43755  1
 H  H2  1  0.66667  0.33333  0.56245  1
 Pd  Pd1  1  0.33333  0.66667  0.62991  1
 Pd  Pd2  1  0.66667  0.33333  0.37009  1
