CIF file written using JARVIS-Tools package.
data_SnHCl
_symmetry_space_group_name_H-M  'P2_1/m'
_cell_length_a       5.98229
_cell_length_b       4.12579
_cell_length_c       5.79995
_cell_angle_alpha    90
_cell_angle_beta     113.751
_cell_angle_gamma    90

_symmetry_Int_Tables_number  11
_chemical_formula_structural  SnHCl
_chemical_formula_sum  Sn2H2Cl2
_cell_volume  131.02817193486632
_cell_formula_units_Z  2
loop_
  _symmetry_equiv_pos_site_id
 _symmetry_equiv_pos_as_xyz
 1  'x, y, z'
loop_
 _atom_site_type_symbol
 _atom_site_label
 _atom_site_symmetry_multiplicity
 _atom_site_fract_x
 _atom_site_fract_y
 _atom_site_fract_z
 _atom_site_fract_occupancy
 Cl  Cl1  1  0.23858  0.75000  0.77358  1
 Cl  Cl2  1  0.76142  0.25000  0.22642  1
 H  H1  1  0.54959  0.25000  0.62209  1
 H  H2  1  0.45041  0.75000  0.37791  1
 Sn  Sn1  1  0.66177  0.75000  0.75669  1
 Sn  Sn2  1  0.33823  0.25000  0.24331  1
