CIF file written using JARVIS-Tools package.
data_HOF
_symmetry_space_group_name_H-M  'Pm'
_cell_length_a       4.29339
_cell_length_b       3.36463
_cell_length_c       3.21862
_cell_angle_alpha    90
_cell_angle_beta     90
_cell_angle_gamma    122.015

_symmetry_Int_Tables_number  6
_chemical_formula_structural  HOF
_chemical_formula_sum  HOF
_cell_volume  39.423472968749465
_cell_formula_units_Z  1
loop_
  _symmetry_equiv_pos_site_id
 _symmetry_equiv_pos_as_xyz
 1  'x, y, z'
loop_
 _atom_site_type_symbol
 _atom_site_label
 _atom_site_symmetry_multiplicity
 _atom_site_fract_x
 _atom_site_fract_y
 _atom_site_fract_z
 _atom_site_fract_occupancy
 F  F1  1  0.17618  -0.13760  0.00000  1
 H  H1  1  -0.02391  0.24279  0.00000  1
 O  O1  1  0.84773  0.89481  0.00000  1
