CIF file written using JARVIS-Tools package.
data_RbMnF
_symmetry_space_group_name_H-M  'Pmm2'
_cell_length_a       6.5757
_cell_length_b       4.07545
_cell_length_c       3.25522
_cell_angle_alpha    90
_cell_angle_beta     90
_cell_angle_gamma    89.9781

_symmetry_Int_Tables_number  25
_chemical_formula_structural  RbMnF
_chemical_formula_sum  RbMnF
_cell_volume  87.23639295626117
_cell_formula_units_Z  1
loop_
  _symmetry_equiv_pos_site_id
 _symmetry_equiv_pos_as_xyz
 1  'x, y, z'
loop_
 _atom_site_type_symbol
 _atom_site_label
 _atom_site_symmetry_multiplicity
 _atom_site_fract_x
 _atom_site_fract_y
 _atom_site_fract_z
 _atom_site_fract_occupancy
 F  F1  1  0.05432  -0.07070  0.00000  1
 Mn  Mn1  1  0.35265  -0.07056  0.00000  1
 Rb  Rb1  1  -0.18899  0.42946  0.00000  1
