CIF file written using JARVIS-Tools package.
data_MnGeO4
_symmetry_space_group_name_H-M  'I-4m2'
_cell_length_a       5.28328
_cell_length_b       5.28328
_cell_length_c       5.28328
_cell_angle_alpha    138.664
_cell_angle_beta     138.664
_cell_angle_gamma    59.887

_symmetry_Int_Tables_number  119
_chemical_formula_structural  MnGeO4
_chemical_formula_sum  MnGeO4
_cell_volume  63.67557767709242
_cell_formula_units_Z  1
loop_
  _symmetry_equiv_pos_site_id
 _symmetry_equiv_pos_as_xyz
 1  'x, y, z'
loop_
 _atom_site_type_symbol
 _atom_site_label
 _atom_site_symmetry_multiplicity
 _atom_site_fract_x
 _atom_site_fract_y
 _atom_site_fract_z
 _atom_site_fract_occupancy
 Ge  Ge1  1  0.75000  0.25000  0.50000  1
 Mn  Mn1  1  0.00000  0.00000  0.00000  1
 O  O1  1  0.95679  0.45679  0.50000  1
 O  O2  1  0.79356  0.79356  0.00000  1
 O  O3  1  0.54321  0.04321  0.50000  1
 O  O4  1  0.20644  0.20644  0.00000  1
