CIF file written using JARVIS-Tools package.
data_I3Cl
_symmetry_space_group_name_H-M  'P1'
_cell_length_a       6.07867
_cell_length_b       4.32303
_cell_length_c       8.59038
_cell_angle_alpha    48.9673
_cell_angle_beta     102.792
_cell_angle_gamma    100.178

_symmetry_Int_Tables_number  1
_chemical_formula_structural  I3Cl
_chemical_formula_sum  I3Cl
_cell_volume  165.90649185448038
_cell_formula_units_Z  1
loop_
  _symmetry_equiv_pos_site_id
 _symmetry_equiv_pos_as_xyz
 1  'x, y, z'
loop_
 _atom_site_type_symbol
 _atom_site_label
 _atom_site_symmetry_multiplicity
 _atom_site_fract_x
 _atom_site_fract_y
 _atom_site_fract_z
 _atom_site_fract_occupancy
 Cl  Cl1  1  0.75909  0.16599  0.59382  1
 I  I1  1  -0.01769  0.97709  0.04245  1
 I  I2  1  0.57888  0.33065  0.25614  1
 I  I3  1  0.34017  0.54545  0.84019  1
