CIF file written using JARVIS-Tools package.
data_Li2Te
_symmetry_space_group_name_H-M  'Pmmm'
_cell_length_a       4.45485
_cell_length_b       4.97547
_cell_length_c       5.87277
_cell_angle_alpha    90
_cell_angle_beta     90
_cell_angle_gamma    90

_symmetry_Int_Tables_number  47
_chemical_formula_structural  Li2Te
_chemical_formula_sum  Li2Te
_cell_volume  130.16988910161277
_cell_formula_units_Z  1
loop_
  _symmetry_equiv_pos_site_id
 _symmetry_equiv_pos_as_xyz
 1  'x, y, z'
loop_
 _atom_site_type_symbol
 _atom_site_label
 _atom_site_symmetry_multiplicity
 _atom_site_fract_x
 _atom_site_fract_y
 _atom_site_fract_z
 _atom_site_fract_occupancy
 Li  Li1  1  -0.03333  0.00000  0.77733  1
 Li  Li2  1  -0.03333  0.00000  0.22267  1
 Te  Te1  1  0.46665  0.00000  0.00000  1
