CIF file written using JARVIS-Tools package.
data_LiTe
_symmetry_space_group_name_H-M  'P1'
_cell_length_a       6.44509
_cell_length_b       6.06509
_cell_length_c       4.67544
_cell_angle_alpha    89.6059
_cell_angle_beta     111.019
_cell_angle_gamma    41.2937

_symmetry_Int_Tables_number  1
_chemical_formula_structural  LiTe
_chemical_formula_sum  Li2Te2
_cell_volume  100.61715740049944
_cell_formula_units_Z  2
loop_
  _symmetry_equiv_pos_site_id
 _symmetry_equiv_pos_as_xyz
 1  'x, y, z'
loop_
 _atom_site_type_symbol
 _atom_site_label
 _atom_site_symmetry_multiplicity
 _atom_site_fract_x
 _atom_site_fract_y
 _atom_site_fract_z
 _atom_site_fract_occupancy
 Li  Li1  1  0.90197  0.00198  0.88637  1
 Li  Li2  1  0.53911  0.83240  0.70356  1
 Te  Te1  1  0.70713  0.44715  0.28988  1
 Te  Te2  1  0.47613  0.16071  0.17017  1
