CIF file written using JARVIS-Tools package.
data_Mg2Zn
_symmetry_space_group_name_H-M  'Pmmm'
_cell_length_a       3.09217
_cell_length_b       3.10764
_cell_length_c       7.4323
_cell_angle_alpha    90
_cell_angle_beta     90
_cell_angle_gamma    90

_symmetry_Int_Tables_number  47
_chemical_formula_structural  Mg2Zn
_chemical_formula_sum  Mg2Zn
_cell_volume  71.41950054372579
_cell_formula_units_Z  1
loop_
  _symmetry_equiv_pos_site_id
 _symmetry_equiv_pos_as_xyz
 1  'x, y, z'
loop_
 _atom_site_type_symbol
 _atom_site_label
 _atom_site_symmetry_multiplicity
 _atom_site_fract_x
 _atom_site_fract_y
 _atom_site_fract_z
 _atom_site_fract_occupancy
 Mg  Mg1  1  -0.03334  0.00000  0.69905  1
 Mg  Mg2  1  -0.03334  0.00000  0.30095  1
 Zn  Zn1  1  0.46669  0.00000  0.00000  1
