CIF file written using JARVIS-Tools package.
data_AsSBr
_symmetry_space_group_name_H-M  'P4/nmm'
_cell_length_a       4.32607
_cell_length_b       4.32607
_cell_length_c       7.40412
_cell_angle_alpha    90
_cell_angle_beta     90
_cell_angle_gamma    90

_symmetry_Int_Tables_number  129
_chemical_formula_structural  AsSBr
_chemical_formula_sum  As2S2Br2
_cell_volume  138.56723654970926
_cell_formula_units_Z  2
loop_
  _symmetry_equiv_pos_site_id
 _symmetry_equiv_pos_as_xyz
 1  'x, y, z'
loop_
 _atom_site_type_symbol
 _atom_site_label
 _atom_site_symmetry_multiplicity
 _atom_site_fract_x
 _atom_site_fract_y
 _atom_site_fract_z
 _atom_site_fract_occupancy
 As  As1  1  0.50000  0.00000  0.82418  1
 As  As2  1  0.00000  0.50000  0.17582  1
 Br  Br1  1  0.00000  0.50000  0.65249  1
 Br  Br2  1  0.50000  0.00000  0.34751  1
 S  S1  1  0.50000  0.50000  0.00000  1
 S  S2  1  0.00000  0.00000  0.00000  1
