CIF file written using JARVIS-Tools package.
data_Ba3Br
_symmetry_space_group_name_H-M  'Imm2'
_cell_length_a       8.13822
_cell_length_b       6.64676
_cell_length_c       4.40094
_cell_angle_alpha    90.0201
_cell_angle_beta     105.754
_cell_angle_gamma    65.9039

_symmetry_Int_Tables_number  44
_chemical_formula_structural  Ba3Br
_chemical_formula_sum  Ba3Br
_cell_volume  207.49057621824042
_cell_formula_units_Z  1
loop_
  _symmetry_equiv_pos_site_id
 _symmetry_equiv_pos_as_xyz
 1  'x, y, z'
loop_
 _atom_site_type_symbol
 _atom_site_label
 _atom_site_symmetry_multiplicity
 _atom_site_fract_x
 _atom_site_fract_y
 _atom_site_fract_z
 _atom_site_fract_occupancy
 Ba  Ba1  1  0.20796  -0.01652  0.79386  1
 Ba  Ba2  1  0.47664  0.34925  0.42718  1
 Ba  Ba3  1  0.84234  0.66575  0.11077  1
 Br  Br1  1  0.84229  0.16570  0.11049  1
