CIF file written using JARVIS-Tools package.
data_GeBr
_symmetry_space_group_name_H-M  'Pmmm'
_cell_length_a       5.37919
_cell_length_b       3.29145
_cell_length_c       5.06629
_cell_angle_alpha    49.4359
_cell_angle_beta     66.5152
_cell_angle_gamma    52.2383

_symmetry_Int_Tables_number  47
_chemical_formula_structural  GeBr
_chemical_formula_sum  GeBr
_cell_volume  53.871620411744594
_cell_formula_units_Z  1
loop_
  _symmetry_equiv_pos_site_id
 _symmetry_equiv_pos_as_xyz
 1  'x, y, z'
loop_
 _atom_site_type_symbol
 _atom_site_label
 _atom_site_symmetry_multiplicity
 _atom_site_fract_x
 _atom_site_fract_y
 _atom_site_fract_z
 _atom_site_fract_occupancy
 Br  Br1  1  0.96106  0.08276  0.00991  1
 Ge  Ge1  1  0.46096  0.08294  0.51000  1
