CIF file written using JARVIS-Tools package.
data_Ca2Br
_symmetry_space_group_name_H-M  'Pm'
_cell_length_a       5.87287
_cell_length_b       3.76893
_cell_length_c       7.24948
_cell_angle_alpha    90
_cell_angle_beta     52.0626
_cell_angle_gamma    90

_symmetry_Int_Tables_number  6
_chemical_formula_structural  Ca2Br
_chemical_formula_sum  Ca2Br
_cell_volume  126.55450337093743
_cell_formula_units_Z  1
loop_
  _symmetry_equiv_pos_site_id
 _symmetry_equiv_pos_as_xyz
 1  'x, y, z'
loop_
 _atom_site_type_symbol
 _atom_site_label
 _atom_site_symmetry_multiplicity
 _atom_site_fract_x
 _atom_site_fract_y
 _atom_site_fract_z
 _atom_site_fract_occupancy
 Br  Br1  1  0.46667  0.00000  -0.03272  1
 Ca  Ca1  1  -0.03226  0.00000  -0.03418  1
 Ca  Ca2  1  -0.03441  0.00000  0.46690  1
