CIF file written using JARVIS-Tools package.
data_PH4F
_symmetry_space_group_name_H-M  'P-43m'
_cell_length_a       3.74388
_cell_length_b       3.74388
_cell_length_c       3.74388
_cell_angle_alpha    90
_cell_angle_beta     90
_cell_angle_gamma    90

_symmetry_Int_Tables_number  215
_chemical_formula_structural  PH4F
_chemical_formula_sum  PH4F
_cell_volume  52.476700165274096
_cell_formula_units_Z  1
loop_
  _symmetry_equiv_pos_site_id
 _symmetry_equiv_pos_as_xyz
 1  'x, y, z'
loop_
 _atom_site_type_symbol
 _atom_site_label
 _atom_site_symmetry_multiplicity
 _atom_site_fract_x
 _atom_site_fract_y
 _atom_site_fract_z
 _atom_site_fract_occupancy
 F  F1  1  0.50000  0.50000  0.50000  1
 H  H1  1  0.21998  0.21998  0.78002  1
 H  H2  1  0.21998  0.78002  0.21998  1
 H  H3  1  0.78002  0.21998  0.21998  1
 H  H4  1  0.78002  0.78002  0.78002  1
 P  P1  1  0.00000  0.00000  0.00000  1
