CIF file written using JARVIS-Tools package.
data_NbHO
_symmetry_space_group_name_H-M  'Pmmn'
_cell_length_a       2.92149
_cell_length_b       4.15495
_cell_length_c       5.75051
_cell_angle_alpha    90
_cell_angle_beta     90
_cell_angle_gamma    90

_symmetry_Int_Tables_number  59
_chemical_formula_structural  NbHO
_chemical_formula_sum  Nb2H2O2
_cell_volume  69.80333757908325
_cell_formula_units_Z  2
loop_
  _symmetry_equiv_pos_site_id
 _symmetry_equiv_pos_as_xyz
 1  'x, y, z'
loop_
 _atom_site_type_symbol
 _atom_site_label
 _atom_site_symmetry_multiplicity
 _atom_site_fract_x
 _atom_site_fract_y
 _atom_site_fract_z
 _atom_site_fract_occupancy
 H  H1  1  0.00000  0.50000  0.86039  1
 H  H2  1  0.50000  0.00000  0.13961  1
 Nb  Nb1  1  0.50000  0.50000  0.63431  1
 Nb  Nb2  1  0.00000  0.00000  0.36569  1
 O  O1  1  0.00000  0.50000  0.34086  1
 O  O2  1  0.50000  0.00000  0.65914  1
