CIF file written using JARVIS-Tools package.
data_LiTe
_symmetry_space_group_name_H-M  'Fm-3m'
_cell_length_a       4.04631
_cell_length_b       4.04631
_cell_length_c       5.72041
_cell_angle_alpha    90
_cell_angle_beta     90
_cell_angle_gamma    90

_symmetry_Int_Tables_number  225
_chemical_formula_structural  LiTe
_chemical_formula_sum  Li2Te2
_cell_volume  93.65826260139474
_cell_formula_units_Z  2
loop_
  _symmetry_equiv_pos_site_id
 _symmetry_equiv_pos_as_xyz
 1  'x, y, z'
loop_
 _atom_site_type_symbol
 _atom_site_label
 _atom_site_symmetry_multiplicity
 _atom_site_fract_x
 _atom_site_fract_y
 _atom_site_fract_z
 _atom_site_fract_occupancy
 Li  Li1  1  0.00000  0.00000  0.24960  1
 Li  Li2  1  0.50000  0.50000  0.75040  1
 Te  Te1  1  0.00000  0.00000  0.74961  1
 Te  Te2  1  0.50000  0.50000  0.25039  1
