CIF file written using JARVIS-Tools package.
data_AsBr5
_symmetry_space_group_name_H-M  'Pmm2'
_cell_length_a       6.00437
_cell_length_b       7.90122
_cell_length_c       7.74388
_cell_angle_alpha    90
_cell_angle_beta     90
_cell_angle_gamma    90

_symmetry_Int_Tables_number  25
_chemical_formula_structural  AsBr5
_chemical_formula_sum  AsBr5
_cell_volume  367.38404205607907
_cell_formula_units_Z  1
loop_
  _symmetry_equiv_pos_site_id
 _symmetry_equiv_pos_as_xyz
 1  'x, y, z'
loop_
 _atom_site_type_symbol
 _atom_site_label
 _atom_site_symmetry_multiplicity
 _atom_site_fract_x
 _atom_site_fract_y
 _atom_site_fract_z
 _atom_site_fract_occupancy
 As  As1  1  0.81521  0.00000  0.50000  1
 Br  Br1  1  0.71883  0.00000  0.18360  1
 Br  Br2  1  0.74336  0.68469  0.50000  1
 Br  Br3  1  0.74336  0.31531  0.50000  1
 Br  Br4  1  0.20463  0.00000  0.50000  1
 Br  Br5  1  0.71883  0.00000  0.81641  1
