CIF file written using JARVIS-Tools package.
data_AsBr2
_symmetry_space_group_name_H-M  'Pmm2'
_cell_length_a       3.94012
_cell_length_b       3.44348
_cell_length_c       7.37644
_cell_angle_alpha    90
_cell_angle_beta     90
_cell_angle_gamma    90

_symmetry_Int_Tables_number  25
_chemical_formula_structural  AsBr2
_chemical_formula_sum  AsBr2
_cell_volume  100.08155854072565
_cell_formula_units_Z  1
loop_
  _symmetry_equiv_pos_site_id
 _symmetry_equiv_pos_as_xyz
 1  'x, y, z'
loop_
 _atom_site_type_symbol
 _atom_site_label
 _atom_site_symmetry_multiplicity
 _atom_site_fract_x
 _atom_site_fract_y
 _atom_site_fract_z
 _atom_site_fract_occupancy
 As  As1  1  0.39386  0.00000  0.00000  1
 Br  Br1  1  0.00307  0.00000  0.74374  1
 Br  Br2  1  0.00307  0.00000  0.25626  1
